2024_89_CemigReconfigurationCases/1_AlimsCemig/BDPD04/BDPD04SegmentosMT.dss
new line.TR10861964 bus1=BMT98741764.3,bus2=BMT98741771.3,Phases=1,Linecode=CAB103_3_1,Length=0.064056000,Units=km
new line.TR10861985 bus1=BMT98741750.3,bus2=BMT7112380B.3,Phases=1,Linecode=CAB202_3_1,Length=0.098120000,Units=km
new line.TR10861992 bus1=BMT7112380B.3,bus2=BMT98741764.3,Phases=1,Linecode=CAB202_3_1,Length=0.098120000,Units=km
new line.TR11123148 bus1=BMT7344997B.1.2.3,bus2=BMT174236757.1.2.3,Phases=3,Linecode=CAB103_3_3,Length=0.023096000,Units=km
new line.TR11123162 bus1=BMT1379850B.1.2.3,bus2=BMT7344997B.1.2.3,Phases=3,Linecode=CAB103_3_3,Length=0.030162000,Units=km
new line.TR11123169 bus1=BMT1379829B.1.2.3,bus2=BMT1379850B.1.2.3,Phases=3,Linecode=CAB103_3_3,Length=0.027177000,Units=km
new line.TR11123176 bus1=BMT1379794B.1.2.3,bus2=BMT1379829B.1.2.3,Phases=3,Linecode=CAB103_3_3,Length=0.028083000,Units=km
new line.TR11123183 bus1=BMT7345004B.1.2.3,bus2=BMT1379794B.1.2.3,Phases=3,Linecode=CAB103_3_3,Length=0.021104000,Units=km
new line.TR11123190 bus1=BMT7345011B.1.2.3,bus2=BMT7345004B.1.2.3,Phases=3,Linecode=CAB103_3_3,Length=0.021104000,Units=km
new line.TR11123225 bus1=BMT1377526B.1.2.3,bus2=BMT7345011B.1.2.3,Phases=3,Linecode=CAB103_3_3,Length=0.046116000,Units=km
new line.TR11124457 bus1=BMT174236755.1.2.3,bus2=BMT7347517B.1.2.3,Phases=3,Linecode=CAB103_3_3,Length=0.031077000,Units=km
new line.TR11124499 bus1=BMT98741995.1.2.3,bus2=BMT7347405B.1.2.3,Phases=3,Linecode=CAB103_3_3,Length=0.034146000,Units=km
new line.TR11124513 bus1=BMT149580723.1.2.3,bus2=BMT149580724.1.2.3,Phases=3,Linecode=CABA06_3_3,Length=0.026937000,Units=km
new line.TR11124520 bus1=BMT149580724.1.2.3,bus2=BMT7347426B.1.2.3,Phases=3,Linecode=CABA06_3_3,Length=0.025249000,Units=km
new line.TR11124527 bus1=BMT7347426B.1.2.3,bus2=BMT7347433B.1.2.3,Phases=3,Linecode=CABA06_3_3,Length=0.022813000,Units=km
new line.TR11124730 bus1=BMT7347678B.1.2.3,bus2=BMT98741995.1.2.3,Phases=3,Linecode=CAB103_3_3,Length=0.038603000,Units=km
new line.TR11124779 bus1=BMT7347517B.1.2.3,bus2=BMT7347692B.1.2.3,Phases=3,Linecode=CAB103_3_3,Length=0.047727000,Units=km
new line.TR11124786 bus1=BMT7347692B.1.2.3,bus2=BMT7347678B.1.2.3,Phases=3,Linecode=CAB103_3_3,Length=0.041898000,Units=km
new line.TR11125038 bus1=BMT7347405B.1.2.3,bus2=BMT174236756.1.2.3,Phases=3,Linecode=CAB103_3_3,Length=0.051635000,Units=km
new line.TR11125136 bus1=BMT174236756.1.2.3,bus2=BMT1377526B.1.2.3,Phases=3,Linecode=CAB103_3_3,Length=0.034452000,Units=km
new line.TR11125395 bus1=BMT7347433B.1.2.3,bus2=BMT149580725.1.2.3,Phases=3,Linecode=CABA06_3_3,Length=0.051060000,Units=km
new line.TR11513629 bus1=BMT170295137.2,bus2=BMT7726035B.2,Phases=1,Linecode=CAB202_3_1,Length=0.100443000,Units=km
new line.TR11513636 bus1=BMT7726035B.2,bus2=BMT170295138.2,Phases=1,Linecode=CAB202_3_1,Length=0.099899000,Units=km
new line.TR11522330 bus1=BMT149580725.1.2.3,bus2=BMT149580726.1.2.3,Phases=3,Linecode=CABA06_3_3,Length=0.031397000,Units=km
new line.TR11522337 bus1=BMT149580726.1.2.3,bus2=BMT7732538B.1.2.3,Phases=3,Linecode=CABA06_3_3,Length=0.033028000,Units=km
new line.TR11522344 bus1=BMT7732538B.1.2.3,bus2=BMT7732545B.1.2.3,Phases=3,Linecode=CABA06_3_3,Length=0.041634000,Units=km
new line.TR11522351 bus1=BMT7732545B.1.2.3,bus2=BMT7732559B.1.2.3,Phases=3,Linecode=CABA06_3_3,Length=0.043284000,Units=km
new line.TR11522358 bus1=BMT7732559B.1.2.3,bus2=BMT7732566B.1.2.3,Phases=3,Linecode=CABA06_3_3,Length=0.043284000,Units=km
new line.TR11522365 bus1=BMT7732566B.1.2.3,bus2=BMT149580727.1.2.3,Phases=3,Linecode=CABA06_3_3,Length=0.033300000,Units=km
new line.TR11522372 bus1=BMT149580727.1.2.3,bus2=BMT149580729.1.2.3,Phases=3,Linecode=CABA06_3_3,Length=0.037751000,Units=km
new line.TR11522393 bus1=BMT149580727.1.2.3,bus2=BMT7733287B.1.2.3,Phases=3,Linecode=CABA06_3_3,Length=0.026638000,Units=km
new line.TR11522400 bus1=BMT7733287B.1.2.3,bus2=BMT7733238B.1.2.3,Phases=3,Linecode=CABA06_3_3,Length=0.022213000,Units=km
new line.TR11522407 bus1=BMT7733238B.1.2.3,bus2=BMT7733301B.1.2.3,Phases=3,Linecode=CABA06_3_3,Length=0.029423000,Units=km
new line.TR11522414 bus1=BMT7733301B.1.2.3,bus2=BMT7733322B.1.2.3,Phases=3,Linecode=CABA06_3_3,Length=0.024423000,Units=km
new line.TR11522421 bus1=BMT7733322B.1.2.3,bus2=BMT149580730.1.2.3,Phases=3,Linecode=CABA06_3_3,Length=0.039979000,Units=km
new line.TR11522491 bus1=BMT149580726.1,bus2=BMT7349323B.1,Phases=1,Linecode=CABA06_3_1,Length=0.031077000,Units=km
new line.TR11522498 bus1=BMT7349323B.1,bus2=BMT7733147B.1,Phases=1,Linecode=CABA06_3_1,Length=0.019217000,Units=km
new line.TR11522505 bus1=BMT7733147B.1,bus2=BMT7733679B.1,Phases=1,Linecode=CABA06_3_1,Length=0.033852000,Units=km
new line.TR11522512 bus1=BMT7733679B.1,bus2=BMT7349330B.1,Phases=1,Linecode=CABA06_3_1,Length=0.021410000,Units=km
new line.TR11522519 bus1=BMT7349330B.1,bus2=BMT149580728.1,Phases=1,Linecode=CABA06_3_1,Length=0.028665000,Units=km
new line.TR11637830 bus1=BMT1395285B.1.2.3,bus2=BMT170980119.1.2.3,Phases=3,Linecode=CAB207_3_3,Length=0.012171000,Units=km
new line.TR11637837 bus1=BMT170980119.1.2.3,bus2=BMT1396377B.1.2.3,Phases=3,Linecode=CAB207_3_3,Length=0.010004000,Units=km
new line.TR11927203 bus1=BMT177427780.1.2.3,bus2=BMT1547528B.1.2.3,Phases=3,Linecode=CABA06_3_3,Length=0.020033000,Units=km
new line.TR11927238 bus1=BMT1547528B.1.2.3,bus2=BMT8076616B.1.2.3,Phases=3,Linecode=CABA06_3_3,Length=0.024708000,Units=km
new line.TR11927245 bus1=BMT8076616B.1.2.3,bus2=BMT2356301B.1.2.3,Phases=3,Linecode=CABA06_3_3,Length=0.020008000,Units=km
new line.TR11927252 bus1=BMT2356301B.1.2.3,bus2=BMT2356294B.1.2.3,Phases=3,Linecode=CABA06_3_3,Length=0.042029000,Units=km
new line.TR11927259 bus1=BMT2356294B.1.2.3,bus2=BMT2356287B.1.2.3,Phases=3,Linecode=CABA06_3_3,Length=0.042029000,Units=km
new line.TR11927301 bus1=BMT2356287B.1.2.3,bus2=BMT2356280B.1.2.3,Phases=3,Linecode=CABA06_3_3,Length=0.037015000,Units=km
new line.TR11927308 bus1=BMT2356280B.1.2.3,bus2=BMT177427781.1.2.3,Phases=3,Linecode=CABA06_3_3,Length=0.034028000,Units=km
new line.TR12061512 bus1=BMT175690461.1.2.3,bus2=BMT1385835B.1.2.3,Phases=3,Linecode=CABA06_3_3,Length=0.029440000,Units=km
new line.TR12061519 bus1=BMT1385835B.1.2.3,bus2=BMT175690465.1.2.3,Phases=3,Linecode=CABA06_3_3,Length=0.029626000,Units=km
new line.TR12179572 bus1=BMT156949190.1.2.3,bus2=BMT156949191.1.2.3,Phases=3,Linecode=CAB402_3_3,Length=0.010054000,Units=km
new line.TR12179575 bus1=BMT156949191.1.2.3,bus2=BMT156949192.1.2.3,Phases=3,Linecode=CAB402_5_3,Length=0.005002000,Units=km
new line.TR12286987 bus1=BMT163224666.1.2.3,bus2=BMT163223880.1.2.3,Phases=3,Linecode=CABA08_3_3,Length=0.034028000,Units=km
new line.TR12336647 bus1=BMT171840573.3,bus2=BMT8938863B.3,Phases=1,Linecode=CAB103_3_1,Length=0.076926000,Units=km
new line.TR10462551 bus1=BMT98740567.1.2.3,bus2=BMT171861844.1.2.3,Phases=3,Linecode=CABA06_3_3,Length=0.031061000,Units=km
new line.TR10462558 bus1=BMT171861844.1.2.3,bus2=BMT171861845.1.2.3,Phases=3,Linecode=CABA06_3_3,Length=0.031061000,Units=km
new line.TR10697044 bus1=BMT98739104.2,bus2=BMT6958793B.2,Phases=1,Linecode=CAB202_3_1,Length=0.106874000,Units=km
new line.TR10697051 bus1=BMT6958793B.2,bus2=BMT6958800B.2,Phases=1,Linecode=CAB202_3_1,Length=0.179271000,Units=km
new line.TR10697058 bus1=BMT6958800B.2,bus2=BMT98739125.2,Phases=1,Linecode=CAB202_3_1,Length=0.063089000,Units=km
new line.TR10824654 bus1=BMT98742569.3,bus2=BMT98742590.3,Phases=1,Linecode=CAB103_3_1,Length=0.076056000,Units=km
new line.TR11191972 bus1=BMT177427772.1.2.3,bus2=BMT7412799B.1.2.3,Phases=3,Linecode=CABA06_3_3,Length=0.046192000,Units=km
new line.TR11191979 bus1=BMT7412799B.1.2.3,bus2=BMT2639045B.1.2.3,Phases=3,Linecode=CABA06_3_3,Length=0.037028000,Units=km
new line.TR11191986 bus1=BMT2639045B.1.2.3,bus2=BMT2639038B.1.2.3,Phases=3,Linecode=CABA06_3_3,Length=0.030012000,Units=km
new line.TR11191993 bus1=BMT2639038B.1.2.3,bus2=BMT98742765.1.2.3,Phases=3,Linecode=CABA06_3_3,Length=0.032029000,Units=km
new line.TR11192000 bus1=BMT172211546.1.2.3,bus2=BMT172211547.1.2.3,Phases=3,Linecode=CAB902_4_3,Length=0.007003000,Units=km
new line.TR11319631 bus1=BMT175971114.3,bus2=BMT175971116.3,Phases=1,Linecode=CAB103_3_1,Length=0.029218000,Units=km
new line.TR11319638 bus1=BMT156437228.1,bus2=BMT1378184B.1,Phases=1,Linecode=CAB103_3_1,Length=0.040016000,Units=km
new line.TR11319743 bus1=BMT1378184B.1,bus2=BMT156437232.1,Phases=1,Linecode=CAB103_3_1,Length=0.039220000,Units=km
new line.TR11583930 bus1=BMT107637259.1.2.3,bus2=BMT107637266.1.2.3,Phases=3,Linecode=CAB103_3_3,Length=0.036415000,Units=km
new line.TR11600422 bus1=BMT1395873B.1.2.3,bus2=BMT108488585.1.2.3,Phases=3,Linecode=CAB103_3_3,Length=0.053257000,Units=km
new line.TR11600429 bus1=BMT108488585.1.2.3,bus2=BMT108499981.1.2.3,Phases=3,Linecode=CAB103_3_3,Length=0.010004000,Units=km
new line.TR11600450 bus1=BMT108503614.1.2.3,bus2=BMT108503621.1.2.3,Phases=3,Linecode=CAB103_3_3,Length=0.013006000,Units=km
new line.TR11600513 bus1=BMT108490713.1.2.3,bus2=BMT108490720.1.2.3,Phases=3,Linecode=CAB103_3_3,Length=0.013006000,Units=km
new line.TR12010986 bus1=BMT176096127.2,bus2=BMT8142752B.2,Phases=1,Linecode=CAB102_3_1,Length=0.041320000,Units=km
new line.TR12010993 bus1=BMT8142752B.2,bus2=BMT1384449B.2,Phases=1,Linecode=CAB102_3_1,Length=0.049060000,Units=km
new line.TR12147057 bus1=BMT1430838B.1.2.3,bus2=BMT159232062.1.2.3,Phases=3,Linecode=CABA08_3_3,Length=0.043480000,Units=km
new line.TR12278868 bus1=BMT159424519.1.2.3,bus2=BMT1396223D.1.2.3,Phases=3,Linecode=CABA06_3_3,Length=0.029012000,Units=km
new line.TR12278869 bus1=BMT1396223D.1.2.3,bus2=BMT1396216B.1.2.3,Phases=3,Linecode=CABA06_3_3,Length=0.041017000,Units=km
new line.TR12279054 bus1=BMT163224666.1.2.3,bus2=BMT8881782C.1.2.3,Phases=3,Linecode=CAB103_3_3,Length=0.010004000,Units=km
new line.TR12279056 bus1=BMT8881782C.1.2.3,bus2=BMT1388005B.1.2.3,Phases=3,Linecode=CAB103_3_3,Length=0.021033000,Units=km
new line.TR12279097 bus1=BMT154716560.1.2.3,bus2=BMT8881777C.1.2.3,Phases=3,Linecode=CAB103_3_3,Length=0.010054000,Units=km
new line.TR12279098 bus1=BMT8881777C.1.2.3,bus2=BMT1389461B.1.2.3,Phases=3,Linecode=CAB103_3_3,Length=0.021033000,Units=km
new line.TR12279148 bus1=BMT154716558.1,bus2=BMT8881774C.1,Phases=1,Linecode=CAB102_3_1,Length=0.013044000,Units=km
new line.TR12279149 bus1=BMT8881774C.1,bus2=BMT1388978B.1,Phases=1,Linecode=CAB102_3_1,Length=0.024031000,Units=km
new line.TR12279168 bus1=BMT154716557.1.2.3,bus2=BMT8881772C.1.2.3,Phases=3,Linecode=CAB102_3_3,Length=0.012088000,Units=km
new line.TR12279169 bus1=BMT8881772C.1.2.3,bus2=BMT154549036.1.2.3,Phases=3,Linecode=CAB102_3_3,Length=0.017500000,Units=km
new line.TR12307581 bus1=BMT1385758B.1.2.3,bus2=BMT8909156B.1.2.3,Phases=3,Linecode=CAB103_3_3,Length=0.033255000,Units=km
new line.TR12307582 bus1=BMT8909156B.1.2.3,bus2=BMT98743738.1.2.3,Phases=3,Linecode=CAB103_3_3,Length=0.037069000,Units=km
new line.TR12307584 bus1=BMT174188856.1.2.3,bus2=BMT174188857.1.2.3,Phases=3,Linecode=CAB103_3_3,Length=0.017037000,Units=km
new line.TR12307585 bus1=BMT174188860.1.2.3,bus2=BMT155058467.1.2.3,Phases=3,Linecode=CAB103_3_3,Length=0.015531000,Units=km
new line.TR12307586 bus1=BMT174188860.1.2.3,bus2=BMT1385758B.1.2.3,Phases=3,Linecode=CAB103_3_3,Length=0.022570000,Units=km
new line.TR12307588 bus1=BMT174188860.1.2.3,bus2=BMT174188237.1.2.3,Phases=3,Linecode=CAB103_3_3,Length=0.015304000,Units=km
new line.TR12307589 bus1=BMT1390749B.1.2.3,bus2=BMT174188860.1.2.3,Phases=3,Linecode=CAB103_3_3,Length=0.030883000,Units=km
new line.TR12329964 bus1=BMT8111266B.1.2.3,bus2=BMT8930624B.1.2.3,Phases=3,Linecode=CABA06_3_3,Length=0.037378000,Units=km
new line.TR12330031 bus1=BMT8930624B.1.2.3,bus2=BMT8931347B.1.2.3,Phases=3,Linecode=CABA06_3_3,Length=0.040278000,Units=km
new line.TR12330032 bus1=BMT8931347B.1.2.3,bus2=BMT168859903.1.2.3,Phases=3,Linecode=CABA06_3_3,Length=0.032998000,Units=km
new line.TR12330033 bus1=BMT168859903.1.2.3,bus2=BMT8931364B.1.2.3,Phases=3,Linecode=CABA06_3_3,Length=0.035454000,Units=km
new line.TR12330034 bus1=BMT8931364B.1.2.3,bus2=BMT8931366B.1.2.3,Phases=3,Linecode=CABA06_3_3,Length=0.045207000,Units=km
new line.TR12330035 bus1=BMT8931366B.1.2.3,bus2=BMT8931367B.1.2.3,Phases=3,Linecode=CABA06_3_3,Length=0.037592000,Units=km
new line.TR12330038 bus1=BMT8931367B.1.2.3,bus2=BMT168859905.1.2.3,Phases=3,Linecode=CABA06_3_3,Length=0.012088000,Units=km
new line.TR12330039 bus1=BMT168859905.1.2.3,bus2=BMT8931368B.1.2.3,Phases=3,Linecode=CABA06_3_3,Length=0.029979000,Units=km
new line.TR12330042 bus1=BMT168859905.1.2.3,bus2=BMT168859907.1.2.3,Phases=3,Linecode=CABA06_3_3,Length=0.020624000,Units=km
new line.TR12330045 bus1=BMT168859905.1.2.3,bus2=BMT8931372B.1.2.3,Phases=3,Linecode=CABA06_3_3,Length=0.013006000,Units=km
new line.TR12333516 bus1=BMT172170241.1.2.3,bus2=BMT156015150.1.2.3,Phases=3,Linecode=CABA06_3_3,Length=0.034073000,Units=km
new line.TR12333517 bus1=BMT156025270.1.2.3,bus2=BMT8935112B.1.2.3,Phases=3,Linecode=CABA06_3_3,Length=0.035143000,Units=km
new line.TR12333518 bus1=BMT8935112B.1.2.3,bus2=BMT156025271.1.2.3,Phases=3,Linecode=CABA06_3_3,Length=0.035143000,Units=km
new line.TR12333519 bus1=BMT156025271.1.2.3,bus2=BMT8935133B.1.2.3,Phases=3,Linecode=CABA06_3_3,Length=0.030029000,Units=km
new line.TR12333520 bus1=BMT8935133B.1.2.3,bus2=BMT8935135B.1.2.3,Phases=3,Linecode=CABA06_3_3,Length=0.034146000,Units=km
new line.TR12333521 bus1=BMT8935135B.1.2.3,bus2=BMT8935153B.1.2.3,Phases=3,Linecode=CABA06_3_3,Length=0.035143000,Units=km
new line.TR10284604 bus1=BMT6494469B.1.2.3,bus2=BMT167418157.1.2.3,Phases=3,Linecode=CABA06_3_3,Length=0.035014000,Units=km
new line.TR10656808 bus1=BMT98742709.1.2.3,bus2=BMT1395824B.1.2.3,Phases=3,Linecode=CAB103_3_3,Length=0.040016000,Units=km
new line.TR11408524 bus1=BMT174333627.1.2.3,bus2=BMT98739202.1.2.3,Phases=3,Linecode=CAB103_3_3,Length=0.031636000,Units=km
new line.TR11408538 bus1=BMT98742464.1.2.3,bus2=BMT98742471.1.2.3,Phases=3,Linecode=CAB103_3_3,Length=0.019933000,Units=km
new line.TR11413368 bus1=BMT98742912.1.2.3,bus2=BMT98742919.1.2.3,Phases=3,Linecode=CAB103_3_3,Length=0.011185000,Units=km
new line.TR11938690 bus1=BMT165412165.1.2.3,bus2=BMT165412166.1.2.3,Phases=3,Linecode=CABA06_3_3,Length=0.026582000,Units=km
new line.TR11951031 bus1=BMT178497682.1.2.3,bus2=BMT1379976B.1.2.3,Phases=3,Linecode=CABA06_3_3,Length=0.032029000,Units=km
new line.TR11951038 bus1=BMT1379976B.1.2.3,bus2=BMT171735254.1.2.3,Phases=3,Linecode=CABA06_3_3,Length=0.037136000,Units=km
new line.TR11951045 bus1=BMT171735263.1.2.3,bus2=BMT1379647B.1.2.3,Phases=3,Linecode=CABA06_3_3,Length=0.038225000,Units=km
new line.TR11951052 bus1=BMT1379647B.1.2.3,bus2=BMT171735264.1.2.3,Phases=3,Linecode=CABA06_3_3,Length=0.045295000,Units=km
new line.TR11954503 bus1=BMT131875326.1.2.3,bus2=BMT131875333.1.2.3,Phases=3,Linecode=CAB103_3_3,Length=0.014566000,Units=km
new line.TR11954545 bus1=BMT165412045.1.2.3,bus2=BMT165412046.1.2.3,Phases=3,Linecode=CAB902_4_3,Length=0.022813000,Units=km
new line.TR11955280 bus1=BMT154716560.1.2.3,bus2=BMT154716562.1.2.3,Phases=3,Linecode=CAB207_3_3,Length=0.029012000,Units=km
new line.TR11955287 bus1=BMT163224664.1.2.3,bus2=BMT1389412B.1.2.3,Phases=3,Linecode=CAB207_3_3,Length=0.037028000,Units=km
new line.TR12094097 bus1=BMT1383329B.1.2.3,bus2=BMT172170243.1.2.3,Phases=3,Linecode=CABA06_3_3,Length=0.039335000,Units=km
new line.TR12094104 bus1=BMT1383336B.1.2.3,bus2=BMT1383329B.1.2.3,Phases=3,Linecode=CABA06_3_3,Length=0.034146000,Units=km
new line.TR12094111 bus1=BMT1383343B.1.2.3,bus2=BMT1383336B.1.2.3,Phases=3,Linecode=CABA06_3_3,Length=0.034146000,Units=km
new line.TR12094118 bus1=BMT1383357B.1.2.3,bus2=BMT1383343B.1.2.3,Phases=3,Linecode=CABA06_3_3,Length=0.037231000,Units=km
new line.TR12094202 bus1=BMT8213564B.1.2.3,bus2=BMT1383357B.1.2.3,Phases=3,Linecode=CABA06_3_3,Length=0.030079000,Units=km
new line.TR12094209 bus1=BMT172170241.1.2.3,bus2=BMT8213564B.1.2.3,Phases=3,Linecode=CABA06_3_3,Length=0.029167000,Units=km
new line.TR12094216 bus1=BMT8213585B.1.2.3,bus2=BMT172170241.1.2.3,Phases=3,Linecode=CABA06_3_3,Length=0.036084000,Units=km
new line.TR12094223 bus1=BMT172170240.1.2.3,bus2=BMT8213585B.1.2.3,Phases=3,Linecode=CABA06_3_3,Length=0.041790000,Units=km
new line.TR12094230 bus1=BMT172170239.1.2.3,bus2=BMT172170240.1.2.3,Phases=3,Linecode=CABA06_3_3,Length=0.031157000,Units=km
new line.TR12094237 bus1=BMT172170240.1.2.3,bus2=BMT8213690B.1.2.3,Phases=3,Linecode=CABA06_3_3,Length=0.037136000,Units=km
new line.TR12094244 bus1=BMT8213690B.1.2.3,bus2=BMT8213697B.1.2.3,Phases=3,Linecode=CABA06_3_3,Length=0.041211000,Units=km
new line.TR12094251 bus1=BMT8213697B.1.2.3,bus2=BMT172170242.1.2.3,Phases=3,Linecode=CABA06_3_3,Length=0.034248000,Units=km
new line.TR12099011 bus1=BMT163197248.2,bus2=BMT163197250.2,Phases=1,Linecode=CAB103_3_1,Length=0.058623000,Units=km
new line.TR12214364 bus1=BMT151847641.1.2.3,bus2=BMT8814786B.1.2.3,Phases=3,Linecode=CAB601_5_3,Length=0.004474000,Units=km
new line.TR12214366 bus1=BMT8814786B.1.2.3,bus2=BMT151847642.1.2.3,Phases=3,Linecode=CAB601_5_3,Length=0.018035000,Units=km
new line.TR12271431 bus1=BMT1382762B.1.2.3,bus2=BMT8875077B.1.2.3,Phases=3,Linecode=CAB102_3_3,Length=0.040216000,Units=km
new line.TR12271432 bus1=BMT8875077B.1.2.3,bus2=BMT1384428B.1.2.3,Phases=3,Linecode=CAB102_3_3,Length=0.041211000,Units=km
new line.TR12351844 bus1=BMT98740707.1.2.3,bus2=BMT8955817B.1.2.3,Phases=3,Linecode=CABA06_3_3,Length=0.061490000,Units=km
new line.TR12351846 bus1=BMT8955817B.1.2.3,bus2=BMT8955668B.1.2.3,Phases=3,Linecode=CABA06_3_3,Length=0.024708000,Units=km
new line.TR12351847 bus1=BMT8955668B.1.2.3,bus2=BMT8955666B.1.2.3,Phases=3,Linecode=CABA06_3_3,Length=0.022481000,Units=km
new line.TR12351848 bus1=BMT8955666B.1.2.3,bus2=BMT8955661B.1.2.3,Phases=3,Linecode=CABA06_3_3,Length=0.041898000,Units=km
new line.TR12351849 bus1=BMT8955661B.1.2.3,bus2=BMT8955633B.1.2.3,Phases=3,Linecode=CABA06_3_3,Length=0.030245000,Units=km
new line.TR12351853 bus1=BMT8955633B.1.2.3,bus2=BMT174236753.1.2.3,Phases=3,Linecode=CABA06_3_3,Length=0.031397000,Units=km
new line.TR12351858 bus1=BMT174236753.1.2.3,bus2=BMT174236754.1.2.3,Phases=3,Linecode=CABA06_3_3,Length=0.024708000,Units=km
new line.TR12351859 bus1=BMT174236754.1.2.3,bus2=BMT8955456B.1.2.3,Phases=3,Linecode=CABA06_3_3,Length=0.027470000,Units=km
new line.TR12351860 bus1=BMT8955456B.1.2.3,bus2=BMT8955455B.1.2.3,Phases=3,Linecode=CABA06_3_3,Length=0.018365000,Units=km
new line.TR12351861 bus1=BMT8955455B.1.2.3,bus2=BMT8955440B.1.2.3,Phases=3,Linecode=CABA06_3_3,Length=0.040833000,Units=km
new line.TR12351862 bus1=BMT8955440B.1.2.3,bus2=BMT8955439B.1.2.3,Phases=3,Linecode=CABA06_3_3,Length=0.039979000,Units=km
new line.TR12351863 bus1=BMT8955439B.1.2.3,bus2=BMT174236755.1.2.3,Phases=3,Linecode=CABA06_3_3,Length=0.048568000,Units=km
new line.TR12351878 bus1=BMT174236753.1.2.3,bus2=BMT156671276.1.2.3,Phases=3,Linecode=CABA06_3_3,Length=0.031077000,Units=km
new line.TR12351879 bus1=BMT174780071.1.2.3,bus2=BMT174780072.1.2.3,Phases=3,Linecode=CABA06_3_3,Length=0.024423000,Units=km
new line.TR12351880 bus1=BMT174780072.1.2.3,bus2=BMT8955475B.1.2.3,Phases=3,Linecode=CABA06_3_3,Length=0.020817000,Units=km
new line.TR12351881 bus1=BMT8955475B.1.2.3,bus2=BMT8955478B.1.2.3,Phases=3,Linecode=CABA06_3_3,Length=0.031919000,Units=km
new line.TR12351882 bus1=BMT8955478B.1.2.3,bus2=BMT174780073.1.2.3,Phases=3,Linecode=CABA06_3_3,Length=0.030245000,Units=km
new line.TR12351886 bus1=BMT174780072.1.2.3,bus2=BMT174780074.1.2.3,Phases=3,Linecode=CABA06_3_3,Length=0.030541000,Units=km
new line.TR12351887 bus1=BMT174780074.1.2.3,bus2=BMT8955555B.1.2.3,Phases=3,Linecode=CABA06_3_3,Length=0.021410000,Units=km
new line.TR12351888 bus1=BMT8955555B.1.2.3,bus2=BMT8955575B.1.2.3,Phases=3,Linecode=CABA06_3_3,Length=0.031397000,Units=km
new line.TR12351889 bus1=BMT8955575B.1.2.3,bus2=BMT8955581B.1.2.3,Phases=3,Linecode=CABA06_3_3,Length=0.020257000,Units=km
new line.TR12351890 bus1=BMT8955581B.1.2.3,bus2=BMT174780078.1.2.3,Phases=3,Linecode=CABA06_3_3,Length=0.030245000,Units=km
new line.TR12351894 bus1=BMT174780072.1.2.3,bus2=BMT8955541B.1.2.3,Phases=3,Linecode=CABA06_3_3,Length=0.040513000,Units=km
new line.TR11734402 bus1=BMT1619915B.2,bus2=BMT176369343.2,Phases=1,Linecode=CAB202_3_1,Length=0.082038000,Units=km
new line.TR11734409 bus1=BMT176369343.2,bus2=BMT98741848.2,Phases=1,Linecode=CAB202_3_1,Length=0.082038000,Units=km
new line.TR11741843 bus1=BMT171840574.3,bus2=BMT7919606B.3,Phases=1,Linecode=CAB202_3_1,Length=0.099864000,Units=km
new line.TR11741850 bus1=BMT7919606B.3,bus2=BMT171840577.3,Phases=1,Linecode=CAB202_3_1,Length=0.097038000,Units=km
new line.TR11741857 bus1=BMT171840577.3,bus2=BMT171840584.3,Phases=1,Linecode=CAB202_3_1,Length=0.102020000,Units=km
new line.TR11741864 bus1=BMT171840584.3,bus2=BMT171840586.3,Phases=1,Linecode=CAB202_3_1,Length=0.086567000,Units=km
new line.TR11742053 bus1=BMT7919781B.3,bus2=BMT171840579.3,Phases=1,Linecode=CAB202_3_1,Length=0.278303000,Units=km
new line.TR11742060 bus1=BMT171840579.3,bus2=BMT171840580.3,Phases=1,Linecode=CAB202_3_1,Length=0.350171000,Units=km
new line.TR12048632 bus1=BMT175329344.3,bus2=BMT8174035B.3,Phases=1,Linecode=CAB202_3_1,Length=0.071498000,Units=km
new line.TR12048639 bus1=BMT8174035B.3,bus2=BMT175329346.3,Phases=1,Linecode=CAB202_3_1,Length=0.059798000,Units=km
new line.TR12049696 bus1=BMT171735264.1.2.3,bus2=BMT3706391B.1.2.3,Phases=3,Linecode=CABA06_3_3,Length=0.045196000,Units=km
new line.TR12049703 bus1=BMT3706391B.1.2.3,bus2=BMT3791028B.1.2.3,Phases=3,Linecode=CABA06_3_3,Length=0.024197000,Units=km
new line.TR12049710 bus1=BMT3791028B.1.2.3,bus2=BMT6312980B.1.2.3,Phases=3,Linecode=CABA06_3_3,Length=0.031157000,Units=km
new line.TR12049717 bus1=BMT6312980B.1.2.3,bus2=BMT171735265.1.2.3,Phases=3,Linecode=CABA06_3_3,Length=0.031157000,Units=km
new line.TR12154185 bus1=BMT174780217.1,bus2=BMT174780220.1,Phases=1,Linecode=CAB202_3_1,Length=0.117255000,Units=km
new line.TR12267251 bus1=BMT170518613.2,bus2=BMT3164136B.2,Phases=1,Linecode=CABA06_3_1,Length=0.025623000,Units=km
new line.TR12267252 bus1=BMT3164136B.2,bus2=BMT8870970B.2,Phases=1,Linecode=CABA06_3_1,Length=0.032663000,Units=km
new line.TR12267253 bus1=BMT8870970B.2,bus2=BMT8870971B.2,Phases=1,Linecode=CABA06_3_1,Length=0.032816000,Units=km
new line.TR12267254 bus1=BMT8870971B.2,bus2=BMT170518614.2,Phases=1,Linecode=CABA06_3_1,Length=0.032816000,Units=km
new line.TR12300439 bus1=BMT178176687.1.2.3,bus2=BMT1381670B.1.2.3,Phases=3,Linecode=CABA06_3_3,Length=0.037136000,Units=km
new line.TR12300440 bus1=BMT1381670B.1.2.3,bus2=BMT8902109B.1.2.3,Phases=3,Linecode=CABA06_3_3,Length=0.025090000,Units=km
new line.TR12300441 bus1=BMT8902109B.1.2.3,bus2=BMT8902110B.1.2.3,Phases=3,Linecode=CABA06_3_3,Length=0.012535000,Units=km
new line.TR12300442 bus1=BMT8902110B.1.2.3,bus2=BMT8902112B.1.2.3,Phases=3,Linecode=CABA06_3_3,Length=0.024607000,Units=km
new line.TR12300443 bus1=BMT8902112B.1.2.3,bus2=BMT178176688.1.2.3,Phases=3,Linecode=CABA06_3_3,Length=0.024031000,Units=km
new line.TR12329293 bus1=BMT168859899.1.2.3,bus2=BMT1386703B.1.2.3,Phases=3,Linecode=CABA06_3_3,Length=0.034219000,Units=km
new line.TR12329294 bus1=BMT1386703B.1.2.3,bus2=BMT1386696B.1.2.3,Phases=3,Linecode=CABA06_3_3,Length=0.030095000,Units=km
new line.TR12329296 bus1=BMT1386661B.1.2.3,bus2=BMT8111266B.1.2.3,Phases=3,Linecode=CABA06_3_3,Length=0.035185000,Units=km
new line.TR12406578 bus1=BMT175690468.1.2.3,bus2=BMT1385765B.1.2.3,Phases=3,Linecode=CABA06_3_3,Length=0.035525000,Units=km
new line.TR12406582 bus1=BMT1385765B.1.2.3,bus2=BMT8946936B.1.2.3,Phases=3,Linecode=CABA06_3_3,Length=0.034943000,Units=km
new line.TR12406583 bus1=BMT8946936B.1.2.3,bus2=BMT9013168B.1.2.3,Phases=3,Linecode=CABA06_3_3,Length=0.034727000,Units=km
new line.TR12406584 bus1=BMT9013168B.1.2.3,bus2=BMT9013171B.1.2.3,Phases=3,Linecode=CABA06_3_3,Length=0.035525000,Units=km
new line.TR12406585 bus1=BMT9013171B.1.2.3,bus2=BMT175690472.1.2.3,Phases=3,Linecode=CABA06_3_3,Length=0.034727000,Units=km
new line.TR12406586 bus1=BMT175690472.1.2.3,bus2=BMT9013179B.1.2.3,Phases=3,Linecode=CABA06_3_3,Length=0.034727000,Units=km
new line.TR12406587 bus1=BMT9013179B.1.2.3,bus2=BMT9013180B.1.2.3,Phases=3,Linecode=CABA06_3_3,Length=0.034727000,Units=km
new line.TR12406588 bus1=BMT9013180B.1.2.3,bus2=BMT9013182B.1.2.3,Phases=3,Linecode=CABA06_3_3,Length=0.034539000,Units=km
new line.TR12406589 bus1=BMT9013182B.1.2.3,bus2=BMT9013183B.1.2.3,Phases=3,Linecode=CABA06_3_3,Length=0.035708000,Units=km
...
