2024_89_CemigReconfigurationCases/1_AlimsCemig/BDPD04/BDPD04Transformadores.dss
new transformer.1234305 Phases=1,Windings=3,Buses=[BMT98742639.1 BBT55900112.1.0 BBT55900112.0.2],Conns=[wye wye wye],kvs=[7.967 0.12 0.12],kvas=[5.000000000 5.000000000 5.000000000],Taps=[1,1.000000000,1.000000000],XHL=1.360000000,XHT=,XLT=,%loadloss=2.100000000,%noloadloss=0.700000000
new transformer.1332207 Phases=1,Windings=3,Buses=[BMT170295138.2 BBT103865085.1.0 BBT103865085.0.2],Conns=[wye wye wye],kvs=[7.967 0.12 0.12],kvas=[10.000000000 10.000000000 10.000000000],Taps=[1,1.000000000,1.000000000],XHL=1.560000000,XHT=,XLT=,%loadloss=1.950000000,%noloadloss=0.500000000
new transformer.1333453 Phases=1,Windings=3,Buses=[BMT149580728.1 BBT104240166.1.0 BBT104240166.0.2],Conns=[wye wye wye],kvs=[7.967 0.12 0.12],kvas=[35.000000000 35.000000000 35.000000000],Taps=[1,1.000000000,1.000000000],XHL=2.060000000,XHT=,XLT=,%loadloss=1.410000000,%noloadloss=0.385000000
new transformer.1333460 Phases=3,Windings=2,Buses=[BMT149580729.1.2.3 BBT104240516.1.2.3.0],Conns=[delta wye],kvs=[13.80 0.22],kvas=[45.000000000 45.000000000],Taps=[1,1.000000000],XHL=3.640000000,%loadloss=1.670000000,%noloadloss=0.433000000
new transformer.1333474 Phases=3,Windings=2,Buses=[BMT149580730.1.2.3 BBT104241363.1.2.3.0],Conns=[delta wye],kvs=[13.80 0.22],kvas=[45.000000000 45.000000000],Taps=[1,1.000000000],XHL=3.640000000,%loadloss=1.670000000,%noloadloss=0.433000000
new transformer.1368544 Phases=3,Windings=2,Buses=[BMT177427781.1.2.3 BBT130115323.1.2.3.0],Conns=[delta wye],kvs=[13.80 0.22],kvas=[45.000000000 45.000000000],Taps=[1,1.000000000],XHL=3.640000000,%loadloss=1.670000000,%noloadloss=0.433000000
new transformer.1382845 Phases=3,Windings=2,Buses=[BMT175690465.1.2.3 BBT148211914.1.2.3.0],Conns=[delta wye],kvs=[13.80 0.22],kvas=[75.000000000 75.000000000],Taps=[1,1.000000000],XHL=3.720000000,%loadloss=1.470000000,%noloadloss=0.393000000
new transformer.1403997 Phases=3,Windings=2,Buses=[BMT163224665.1.2.3 BBT151403676.1.2.3.0],Conns=[delta wye],kvs=[13.80 0.22],kvas=[45.000000000 45.000000000],Taps=[1,1.000000000],XHL=3.640000000,%loadloss=1.670000000,%noloadloss=0.433000000
new transformer.1423832 Phases=3,Windings=2,Buses=[BMT168859903.1.2.3 BBT155860353.1.2.3.0],Conns=[delta wye],kvs=[13.80 0.22],kvas=[45.000000000 45.000000000],Taps=[1,1.000000000],XHL=3.640000000,%loadloss=1.670000000,%noloadloss=0.433000000
new transformer.1423835 Phases=3,Windings=2,Buses=[BMT168859907.1.2.3 BBT155861117.1.2.3.0],Conns=[delta wye],kvs=[13.80 0.22],kvas=[45.000000000 45.000000000],Taps=[1,1.000000000],XHL=3.640000000,%loadloss=1.670000000,%noloadloss=0.433000000
new transformer.1439032 Phases=1,Windings=3,Buses=[BMT158959680.2 BBT158958107.1.0 BBT158958107.0.2],Conns=[wye wye wye],kvs=[7.967 0.12 0.12],kvas=[15.000000000 15.000000000 15.000000000],Taps=[1,1.000000000,1.000000000],XHL=1.770000000,XHT=,XLT=,%loadloss=1.770000000,%noloadloss=0.433000000
new transformer.1441786 Phases=3,Windings=2,Buses=[BMT159890972.1.2.3 BBT159547378.1.2.3.0],Conns=[delta wye],kvs=[13.80 0.22],kvas=[45.000000000 45.000000000],Taps=[1,1.000000000],XHL=3.640000000,%loadloss=1.670000000,%noloadloss=0.433000000
new transformer.1445830 Phases=3,Windings=2,Buses=[BMT168859901.1.2.3 BBT160631335.1.2.3.0],Conns=[delta wye],kvs=[13.80 0.22],kvas=[45.000000000 45.000000000],Taps=[1,1.000000000],XHL=3.640000000,%loadloss=1.670000000,%noloadloss=0.433000000
new transformer.1445834 Phases=3,Windings=2,Buses=[BMT160632041.1.2.3 BBT160632042.1.2.3.0],Conns=[delta wye],kvs=[13.80 0.22],kvas=[250.000000000 250.000000000],Taps=[1,1.000000000],XHL=4.880000000,%loadloss=1.080000000,%noloadloss=0.324000000
new transformer.1449951 Phases=3,Windings=2,Buses=[BMT161638894.1.2.3 BBT161635837.1.2.3.0],Conns=[delta wye],kvs=[13.80 0.22],kvas=[75.000000000 75.000000000],Taps=[1,1.000000000],XHL=3.720000000,%loadloss=1.470000000,%noloadloss=0.393000000
new transformer.1463900 Phases=1,Windings=3,Buses=[BMT171840585.3 BBT165097305.1.0 BBT165097305.0.2],Conns=[wye wye wye],kvs=[7.967 0.12 0.12],kvas=[10.000000000 10.000000000 10.000000000],Taps=[1,1.000000000,1.000000000],XHL=1.560000000,XHT=,XLT=,%loadloss=1.950000000,%noloadloss=0.500000000
new transformer.1468377 Phases=3,Windings=2,Buses=[BMT168859909.1.2.3 BBT166182158.1.2.3.0],Conns=[delta wye],kvs=[13.80 0.22],kvas=[75.000000000 75.000000000],Taps=[1,1.000000000],XHL=3.720000000,%loadloss=1.470000000,%noloadloss=0.393000000
new transformer.1468388 Phases=3,Windings=2,Buses=[BMT168859906.1.2.3 BBT166184678.1.2.3.0],Conns=[delta wye],kvs=[13.80 0.22],kvas=[75.000000000 75.000000000],Taps=[1,1.000000000],XHL=3.720000000,%loadloss=1.470000000,%noloadloss=0.393000000
new transformer.1468389 Phases=3,Windings=2,Buses=[BMT168859910.1.2.3 BBT166184812.1.2.3.0],Conns=[delta wye],kvs=[13.80 0.22],kvas=[75.000000000 75.000000000],Taps=[1,1.000000000],XHL=3.720000000,%loadloss=1.470000000,%noloadloss=0.393000000
new transformer.1476193 Phases=1,Windings=3,Buses=[BMT176135141.2 BBT167464911.1.0 BBT167464911.0.2],Conns=[wye wye wye],kvs=[7.967 0.12 0.12],kvas=[35.000000000 35.000000000 35.000000000],Taps=[1,1.000000000,1.000000000],XHL=2.060000000,XHT=,XLT=,%loadloss=1.410000000,%noloadloss=0.385000000
new transformer.1491135 Phases=1,Windings=3,Buses=[BMT170161959.2 BBT170161612.1.0 BBT170161612.0.2],Conns=[wye wye wye],kvs=[7.967 0.12 0.12],kvas=[15.000000000 15.000000000 15.000000000],Taps=[1,1.000000000,1.000000000],XHL=1.770000000,XHT=,XLT=,%loadloss=1.770000000,%noloadloss=0.433000000
new transformer.1495183 Phases=3,Windings=2,Buses=[BMT175690475.1.2.3 BBT171021589.1.2.3.0],Conns=[delta wye],kvs=[13.80 0.22],kvas=[45.000000000 45.000000000],Taps=[1,1.000000000],XHL=3.640000000,%loadloss=1.670000000,%noloadloss=0.433000000
new transformer.1380948 Phases=3,Windings=2,Buses=[BMT171735265.1.2.3 BBT137172863.1.2.3.0],Conns=[delta wye],kvs=[13.80 0.22],kvas=[45.000000000 45.000000000],Taps=[1,1.000000000],XHL=3.640000000,%loadloss=1.670000000,%noloadloss=0.433000000
new transformer.1412999 Phases=1,Windings=3,Buses=[BMT171840582.3 BBT153424888.1.0 BBT153424888.0.2],Conns=[wye wye wye],kvs=[7.967 0.12 0.12],kvas=[10.000000000 10.000000000 10.000000000],Taps=[1,1.000000000,1.000000000],XHL=1.560000000,XHT=,XLT=,%loadloss=1.950000000,%noloadloss=0.500000000
new transformer.1420895 Phases=3,Windings=2,Buses=[BMT156278528.1.2.3 BBT155239137.1.2.3.0],Conns=[delta wye],kvs=[13.80 0.22],kvas=[75.000000000 75.000000000],Taps=[1,1.000000000],XHL=3.720000000,%loadloss=1.470000000,%noloadloss=0.393000000
new transformer.1427470 Phases=3,Windings=2,Buses=[BMT174780076.1.2.3 BBT156669987.1.2.3.0],Conns=[delta wye],kvs=[13.80 0.22],kvas=[75.000000000 75.000000000],Taps=[1,1.000000000],XHL=3.720000000,%loadloss=1.470000000,%noloadloss=0.393000000
new transformer.1427471 Phases=3,Windings=2,Buses=[BMT174780073.1.2.3 BBT156670235.1.2.3.0],Conns=[delta wye],kvs=[13.80 0.22],kvas=[75.000000000 75.000000000],Taps=[1,1.000000000],XHL=3.720000000,%loadloss=1.470000000,%noloadloss=0.393000000
new transformer.1427472 Phases=3,Windings=2,Buses=[BMT174236754.1.2.3 BBT156670511.1.2.3.0],Conns=[delta wye],kvs=[13.80 0.22],kvas=[75.000000000 75.000000000],Taps=[1,1.000000000],XHL=3.720000000,%loadloss=1.470000000,%noloadloss=0.393000000
new transformer.1427473 Phases=3,Windings=2,Buses=[BMT174780074.1.2.3 BBT156670636.1.2.3.0],Conns=[delta wye],kvs=[13.80 0.22],kvas=[75.000000000 75.000000000],Taps=[1,1.000000000],XHL=3.720000000,%loadloss=1.470000000,%noloadloss=0.393000000
new transformer.1427474 Phases=3,Windings=2,Buses=[BMT174780078.1.2.3 BBT156670802.1.2.3.0],Conns=[delta wye],kvs=[13.80 0.22],kvas=[75.000000000 75.000000000],Taps=[1,1.000000000],XHL=3.720000000,%loadloss=1.470000000,%noloadloss=0.393000000
new transformer.1436513 Phases=3,Windings=2,Buses=[BMT175690474.1.2.3 BBT158451433.1.2.3.0],Conns=[delta wye],kvs=[13.80 0.22],kvas=[45.000000000 45.000000000],Taps=[1,1.000000000],XHL=3.640000000,%loadloss=1.670000000,%noloadloss=0.433000000
new transformer.1436514 Phases=3,Windings=2,Buses=[BMT175690473.1.2.3 BBT158451703.1.2.3.0],Conns=[delta wye],kvs=[13.80 0.22],kvas=[45.000000000 45.000000000],Taps=[1,1.000000000],XHL=3.640000000,%loadloss=1.670000000,%noloadloss=0.433000000
new transformer.1436518 Phases=3,Windings=2,Buses=[BMT175690472.1.2.3 BBT158452109.1.2.3.0],Conns=[delta wye],kvs=[13.80 0.22],kvas=[45.000000000 45.000000000],Taps=[1,1.000000000],XHL=3.640000000,%loadloss=1.670000000,%noloadloss=0.433000000
new transformer.1475479 Phases=1,Windings=3,Buses=[BMT167320815.2 BBT167320771.1.0 BBT167320771.0.2],Conns=[wye wye wye],kvs=[7.967 0.12 0.12],kvas=[10.000000000 10.000000000 10.000000000],Taps=[1,1.000000000,1.000000000],XHL=1.560000000,XHT=,XLT=,%loadloss=1.950000000,%noloadloss=0.500000000
new transformer.1475616 Phases=3,Windings=2,Buses=[BMT167346755.1.2.3 BBT167343920.1.2.3.0],Conns=[delta wye],kvs=[13.80 0.22],kvas=[15.000000000 15.000000000],Taps=[1,1.000000000],XHL=3.360000000,%loadloss=2.170000000,%noloadloss=0.566000000
new transformer.1476037 Phases=3,Windings=2,Buses=[BMT167418158.1.2.3 BBT167418159.1.2.3.0],Conns=[delta wye],kvs=[13.80 0.22],kvas=[45.000000000 45.000000000],Taps=[1,1.000000000],XHL=3.640000000,%loadloss=1.670000000,%noloadloss=0.433000000
new transformer.1487443 Phases=3,Windings=2,Buses=[BMT178500254.1.2.3 BBT169429934.1.2.3.0],Conns=[delta wye],kvs=[13.80 0.22],kvas=[45.000000000 45.000000000],Taps=[1,1.000000000],XHL=3.640000000,%loadloss=1.670000000,%noloadloss=0.433000000
new transformer.1487444 Phases=3,Windings=2,Buses=[BMT178500240.1.2.3 BBT169430002.1.2.3.0],Conns=[delta wye],kvs=[13.80 0.22],kvas=[75.000000000 75.000000000],Taps=[1,1.000000000],XHL=3.720000000,%loadloss=1.470000000,%noloadloss=0.393000000
new transformer.1487445 Phases=3,Windings=2,Buses=[BMT178497764.1.2.3 BBT169430075.1.2.3.0],Conns=[delta wye],kvs=[13.80 0.22],kvas=[45.000000000 45.000000000],Taps=[1,1.000000000],XHL=3.640000000,%loadloss=1.670000000,%noloadloss=0.433000000
new transformer.1499291 Phases=1,Windings=3,Buses=[BMT171840578.3 BBT171840588.1.0 BBT171840588.0.2],Conns=[wye wye wye],kvs=[7.967 0.12 0.12],kvas=[10.000000000 10.000000000 10.000000000],Taps=[1,1.000000000,1.000000000],XHL=1.560000000,XHT=,XLT=,%loadloss=1.950000000,%noloadloss=0.500000000
new transformer.1499434 Phases=3,Windings=2,Buses=[BMT171861844.1.2.3 BBT171861591.1.2.3.0],Conns=[delta wye],kvs=[13.80 0.22],kvas=[45.000000000 45.000000000],Taps=[1,1.000000000],XHL=3.640000000,%loadloss=1.670000000,%noloadloss=0.433000000
new transformer.1516256 Phases=3,Windings=2,Buses=[BMT175690470.1.2.3 BBT175690476.1.2.3.0],Conns=[delta wye],kvs=[13.80 0.22],kvas=[45.000000000 45.000000000],Taps=[1,1.000000000],XHL=3.640000000,%loadloss=1.670000000,%noloadloss=0.433000000
new transformer.1518480 Phases=3,Windings=2,Buses=[BMT176275318.1.2.3 BBT176274878.1.2.3.0],Conns=[delta wye],kvs=[13.80 0.22],kvas=[45.000000000 45.000000000],Taps=[1,1.000000000],XHL=3.640000000,%loadloss=1.670000000,%noloadloss=0.433000000
new transformer.420066 Phases=1,Windings=3,Buses=[BMT175329320.3 BBT1792626.1.0 BBT1792626.0.2],Conns=[wye wye wye],kvs=[7.967 0.12 0.12],kvas=[15.000000000 15.000000000 15.000000000],Taps=[1,1.000000000,1.000000000],XHL=1.770000000,XHT=,XLT=,%loadloss=1.770000000,%noloadloss=0.433000000
new transformer.1257391 Phases=1,Windings=3,Buses=[BMT171830863.1 BBT87653512.1.0 BBT87653512.0.2],Conns=[wye wye wye],kvs=[7.967 0.12 0.12],kvas=[5.000000000 5.000000000 5.000000000],Taps=[1,1.000000000,1.000000000],XHL=1.360000000,XHT=,XLT=,%loadloss=2.100000000,%noloadloss=0.700000000
new transformer.1279098 Phases=3,Windings=2,Buses=[BMT175342515.1.2.3 BBT74025534.1.2.3.0],Conns=[delta wye],kvs=[13.80 0.22],kvas=[45.000000000 45.000000000],Taps=[1,1.000000000],XHL=3.640000000,%loadloss=1.670000000,%noloadloss=0.433000000
new transformer.1280512 Phases=1,Windings=3,Buses=[BMT174236756.2 BBT74486967.1.0 BBT74486967.0.2],Conns=[wye wye wye],kvs=[7.967 0.12 0.12],kvas=[15.000000000 15.000000000 15.000000000],Taps=[1,1.000000000,1.000000000],XHL=1.770000000,XHT=,XLT=,%loadloss=1.770000000,%noloadloss=0.433000000
new transformer.1280575 Phases=1,Windings=3,Buses=[BMT149580724.3 BBT74498685.1.0 BBT74498685.0.2],Conns=[wye wye wye],kvs=[7.967 0.12 0.12],kvas=[35.000000000 35.000000000 35.000000000],Taps=[1,1.000000000,1.000000000],XHL=2.060000000,XHT=,XLT=,%loadloss=1.410000000,%noloadloss=0.385000000
new transformer.1280589 Phases=1,Windings=3,Buses=[BMT149580725.1 BBT74499126.1.0 BBT74499126.0.2],Conns=[wye wye wye],kvs=[7.967 0.12 0.12],kvas=[35.000000000 35.000000000 35.000000000],Taps=[1,1.000000000,1.000000000],XHL=2.060000000,XHT=,XLT=,%loadloss=1.410000000,%noloadloss=0.385000000
new transformer.1351506 Phases=1,Windings=3,Buses=[BMT176369343.2 BBT116423351.1.0 BBT116423351.0.2],Conns=[wye wye wye],kvs=[7.967 0.12 0.12],kvas=[10.000000000 10.000000000 10.000000000],Taps=[1,1.000000000,1.000000000],XHL=1.560000000,XHT=,XLT=,%loadloss=1.950000000,%noloadloss=0.500000000
new transformer.1351751 Phases=1,Windings=3,Buses=[BMT171840586.3 BBT116822036.1.0 BBT116822036.0.2],Conns=[wye wye wye],kvs=[7.967 0.12 0.12],kvas=[10.000000000 10.000000000 10.000000000],Taps=[1,1.000000000,1.000000000],XHL=1.560000000,XHT=,XLT=,%loadloss=1.950000000,%noloadloss=0.500000000
new transformer.1351765 Phases=1,Windings=3,Buses=[BMT171840580.3 BBT116829211.1.0 BBT116829211.0.2],Conns=[wye wye wye],kvs=[7.967 0.12 0.12],kvas=[5.000000000 5.000000000 5.000000000],Taps=[1,1.000000000,1.000000000],XHL=1.360000000,XHT=,XLT=,%loadloss=2.100000000,%noloadloss=0.700000000
new transformer.1370784 Phases=3,Windings=2,Buses=[BMT171735264.1.2.3 BBT131643997.1.2.3.0],Conns=[delta wye],kvs=[13.80 0.22],kvas=[45.000000000 45.000000000],Taps=[1,1.000000000],XHL=3.640000000,%loadloss=1.670000000,%noloadloss=0.433000000
new transformer.1387780 Phases=3,Windings=2,Buses=[BMT172170239.1.2.3 BBT139177047.1.2.3.0],Conns=[delta wye],kvs=[13.80 0.22],kvas=[45.000000000 45.000000000],Taps=[1,1.000000000],XHL=3.640000000,%loadloss=1.670000000,%noloadloss=0.433000000
new transformer.1387787 Phases=3,Windings=2,Buses=[BMT172170242.1.2.3 BBT139177628.1.2.3.0],Conns=[delta wye],kvs=[13.80 0.22],kvas=[45.000000000 45.000000000],Taps=[1,1.000000000],XHL=3.640000000,%loadloss=1.670000000,%noloadloss=0.433000000
new transformer.1397026 Phases=1,Windings=3,Buses=[BMT174780220.1 BBT149686990.1.0 BBT149686990.0.2],Conns=[wye wye wye],kvs=[7.967 0.12 0.12],kvas=[10.000000000 10.000000000 10.000000000],Taps=[1,1.000000000,1.000000000],XHL=1.560000000,XHT=,XLT=,%loadloss=1.950000000,%noloadloss=0.500000000
new transformer.1434634 Phases=3,Windings=2,Buses=[BMT168859900.1.2.3 BBT158119701.1.2.3.0],Conns=[delta wye],kvs=[13.80 0.22],kvas=[45.000000000 45.000000000],Taps=[1,1.000000000],XHL=3.640000000,%loadloss=1.670000000,%noloadloss=0.433000000
new transformer.1446629 Phases=1,Windings=3,Buses=[BMT160892010.1 BBT160891907.1.0 BBT160891907.0.2],Conns=[wye wye wye],kvs=[7.967 0.12 0.12],kvas=[10.000000000 10.000000000 10.000000000],Taps=[1,1.000000000,1.000000000],XHL=1.560000000,XHT=,XLT=,%loadloss=1.950000000,%noloadloss=0.500000000
new transformer.1457274 Phases=1,Windings=3,Buses=[BMT171840587.3 BBT163739166.1.0 BBT163739166.0.2],Conns=[wye wye wye],kvs=[7.967 0.12 0.12],kvas=[10.000000000 10.000000000 10.000000000],Taps=[1,1.000000000,1.000000000],XHL=1.560000000,XHT=,XLT=,%loadloss=1.950000000,%noloadloss=0.500000000
new transformer.1477833 Phases=1,Windings=3,Buses=[BMT174780224.1 BBT167754348.1.0 BBT167754348.0.2],Conns=[wye wye wye],kvs=[7.967 0.12 0.12],kvas=[10.000000000 10.000000000 10.000000000],Taps=[1,1.000000000,1.000000000],XHL=1.560000000,XHT=,XLT=,%loadloss=1.950000000,%noloadloss=0.500000000
new transformer.1499609 Phases=3,Windings=2,Buses=[BMT175342518.1.2.3 BBT171890449.1.2.3.0],Conns=[delta wye],kvs=[13.80 0.22],kvas=[45.000000000 45.000000000],Taps=[1,1.000000000],XHL=3.640000000,%loadloss=1.670000000,%noloadloss=0.433000000
new transformer.397239 Phases=1,Windings=3,Buses=[BMT98740854.3 BBT1726987.1.0 BBT1726987.0.2],Conns=[wye wye wye],kvs=[7.967 0.12 0.12],kvas=[10.000000000 10.000000000 10.000000000],Taps=[1,1.000000000,1.000000000],XHL=1.560000000,XHT=,XLT=,%loadloss=1.950000000,%noloadloss=0.500000000
new transformer.397253 Phases=1,Windings=3,Buses=[BMT159186157.3 BBT1727043.1.0 BBT1727043.0.2],Conns=[wye wye wye],kvs=[7.967 0.12 0.12],kvas=[10.000000000 10.000000000 10.000000000],Taps=[1,1.000000000,1.000000000],XHL=1.560000000,XHT=,XLT=,%loadloss=1.950000000,%noloadloss=0.500000000
new transformer.419338 Phases=1,Windings=3,Buses=[BMT163197254.2 BBT1790988.1.0 BBT1790988.0.2],Conns=[wye wye wye],kvs=[7.967 0.12 0.12],kvas=[15.000000000 15.000000000 15.000000000],Taps=[1,1.000000000,1.000000000],XHL=1.770000000,XHT=,XLT=,%loadloss=1.770000000,%noloadloss=0.433000000
new transformer.419373 Phases=1,Windings=3,Buses=[BMT98741337.2 BBT1791058.1.0 BBT1791058.0.2],Conns=[wye wye wye],kvs=[7.967 0.12 0.12],kvas=[10.000000000 10.000000000 10.000000000],Taps=[1,1.000000000,1.000000000],XHL=1.560000000,XHT=,XLT=,%loadloss=1.950000000,%noloadloss=0.500000000
new transformer.419394 Phases=1,Windings=3,Buses=[BMT170161956.2 BBT1791100.1.0 BBT1791100.0.2],Conns=[wye wye wye],kvs=[7.967 0.12 0.12],kvas=[10.000000000 10.000000000 10.000000000],Taps=[1,1.000000000,1.000000000],XHL=1.560000000,XHT=,XLT=,%loadloss=1.950000000,%noloadloss=0.500000000
new transformer.419499 Phases=1,Windings=3,Buses=[BMT163197252.2 BBT1791296.1.0 BBT1791296.0.2],Conns=[wye wye wye],kvs=[7.967 0.12 0.12],kvas=[15.000000000 15.000000000 15.000000000],Taps=[1,1.000000000,1.000000000],XHL=1.770000000,XHT=,XLT=,%loadloss=1.770000000,%noloadloss=0.433000000
new transformer.419940 Phases=3,Windings=2,Buses=[BMT171830889.1.2.3 BBT1792234.1.2.3.0],Conns=[delta wye],kvs=[13.80 0.22],kvas=[15.000000000 15.000000000],Taps=[1,1.000000000],XHL=3.360000000,%loadloss=2.170000000,%noloadloss=0.566000000
new transformer.1126295 Phases=3,Windings=2,Buses=[BMT167418157.1.2.3 BBT28542782.1.2.3.0],Conns=[delta wye],kvs=[13.80 0.22],kvas=[75.000000000 75.000000000],Taps=[1,1.000000000],XHL=3.720000000,%loadloss=1.470000000,%noloadloss=0.393000000
new transformer.1217470 Phases=1,Windings=3,Buses=[BMT98739125.2 BBT48577510.1.0 BBT48577510.0.2],Conns=[wye wye wye],kvs=[7.967 0.12 0.12],kvas=[5.000000000 5.000000000 5.000000000],Taps=[1,1.000000000,1.000000000],XHL=1.360000000,XHT=,XLT=,%loadloss=2.100000000,%noloadloss=0.700000000
new transformer.1306524 Phases=3,Windings=2,Buses=[BMT98743325.1.2.3 BBT84272722.1.2.3.0],Conns=[delta wye],kvs=[13.80 0.22],kvas=[75.000000000 75.000000000],Taps=[1,1.000000000],XHL=3.720000000,%loadloss=1.470000000,%noloadloss=0.393000000
new transformer.1308316 Phases=1,Windings=3,Buses=[BMT156437232.1 BBT86817824.1.0 BBT86817824.0.2],Conns=[wye wye wye],kvs=[7.967 0.12 0.12],kvas=[35.000000000 35.000000000 35.000000000],Taps=[1,1.000000000,1.000000000],XHL=2.060000000,XHT=,XLT=,%loadloss=1.410000000,%noloadloss=0.385000000
new transformer.1338955 Phases=3,Windings=2,Buses=[BMT178497680.1.2.3 BBT126192656.1.2.3.0],Conns=[delta wye],kvs=[13.80 0.22],kvas=[45.000000000 45.000000000],Taps=[1,1.000000000],XHL=3.640000000,%loadloss=1.670000000,%noloadloss=0.433000000
new transformer.1339200 Phases=3,Windings=2,Buses=[BMT107637259.1.2.3 BBT107571711.1.2.3.0],Conns=[delta wye],kvs=[13.80 0.22],kvas=[45.000000000 45.000000000],Taps=[1,1.000000000],XHL=3.640000000,%loadloss=1.670000000,%noloadloss=0.433000000
new transformer.1388697 Phases=1,Windings=3,Buses=[BMT163197250.2 BBT139426555.1.0 BBT139426555.0.2],Conns=[wye wye wye],kvs=[7.967 0.12 0.12],kvas=[10.000000000 10.000000000 10.000000000],Taps=[1,1.000000000,1.000000000],XHL=1.560000000,XHT=,XLT=,%loadloss=1.950000000,%noloadloss=0.500000000
new transformer.1390065 Phases=1,Windings=3,Buses=[BMT171840581.3 BBT148025764.1.0 BBT148025764.0.2],Conns=[wye wye wye],kvs=[7.967 0.12 0.12],kvas=[10.000000000 10.000000000 10.000000000],Taps=[1,1.000000000,1.000000000],XHL=1.560000000,XHT=,XLT=,%loadloss=1.950000000,%noloadloss=0.500000000
new transformer.1390066 Phases=1,Windings=3,Buses=[BMT171840583.3 BBT148026207.1.0 BBT148026207.0.2],Conns=[wye wye wye],kvs=[7.967 0.12 0.12],kvas=[10.000000000 10.000000000 10.000000000],Taps=[1,1.000000000,1.000000000],XHL=1.560000000,XHT=,XLT=,%loadloss=1.950000000,%noloadloss=0.500000000
new transformer.1419003 Phases=3,Windings=2,Buses=[BMT178176688.1.2.3 BBT154833667.1.2.3.0],Conns=[delta wye],kvs=[13.80 0.22],kvas=[45.000000000 45.000000000],Taps=[1,1.000000000],XHL=3.640000000,%loadloss=1.670000000,%noloadloss=0.433000000
new transformer.1419429 Phases=1,Windings=3,Buses=[BMT175329324.3 BBT154927864.1.0 BBT154927864.0.2],Conns=[wye wye wye],kvs=[7.967 0.12 0.12],kvas=[15.000000000 15.000000000 15.000000000],Taps=[1,1.000000000,1.000000000],XHL=1.770000000,XHT=,XLT=,%loadloss=1.770000000,%noloadloss=0.433000000
new transformer.1477367 Phases=3,Windings=2,Buses=[BMT167661611.1.2.3 BBT167660382.1.2.3.0],Conns=[delta wye],kvs=[13.80 0.22],kvas=[45.000000000 45.000000000],Taps=[1,1.000000000],XHL=3.640000000,%loadloss=1.670000000,%noloadloss=0.433000000
new transformer.1489598 Phases=1,Windings=3,Buses=[BMT174075324.2 BBT169845506.1.0 BBT169845506.0.2],Conns=[wye wye wye],kvs=[7.967 0.12 0.12],kvas=[10.000000000 10.000000000 10.000000000],Taps=[1,1.000000000,1.000000000],XHL=1.560000000,XHT=,XLT=,%loadloss=1.950000000,%noloadloss=0.500000000
new transformer.1489601 Phases=1,Windings=3,Buses=[BMT174075325.2 BBT169845569.1.0 BBT169845569.0.2],Conns=[wye wye wye],kvs=[7.967 0.12 0.12],kvas=[10.000000000 10.000000000 10.000000000],Taps=[1,1.000000000,1.000000000],XHL=1.560000000,XHT=,XLT=,%loadloss=1.950000000,%noloadloss=0.500000000
new transformer.1503914 Phases=1,Windings=3,Buses=[BMT176135138.2 BBT172828309.1.0 BBT172828309.0.2],Conns=[wye wye wye],kvs=[7.967 0.12 0.12],kvas=[35.000000000 35.000000000 35.000000000],Taps=[1,1.000000000,1.000000000],XHL=2.060000000,XHT=,XLT=,%loadloss=1.410000000,%noloadloss=0.385000000
new transformer.1504024 Phases=3,Windings=2,Buses=[BMT178176690.1.2.3 BBT172854921.1.2.3.0],Conns=[delta wye],kvs=[13.80 0.22],kvas=[45.000000000 45.000000000],Taps=[1,1.000000000],XHL=3.640000000,%loadloss=1.670000000,%noloadloss=0.433000000
new transformer.1530180 Phases=3,Windings=2,Buses=[BMT178500256.1.2.3 BBT178500226.1.2.3.0],Conns=[delta wye],kvs=[13.80 0.22],kvas=[45.000000000 45.000000000],Taps=[1,1.000000000],XHL=3.640000000,%loadloss=1.670000000,%noloadloss=0.433000000
new transformer.1530181 Phases=3,Windings=2,Buses=[BMT178500258.1.2.3 BBT178500250.1.2.3.0],Conns=[delta wye],kvs=[13.80 0.22],kvas=[75.000000000 75.000000000],Taps=[1,1.000000000],XHL=3.720000000,%loadloss=1.470000000,%noloadloss=0.393000000
new transformer.1530182 Phases=3,Windings=2,Buses=[BMT178500287.1.2.3 BBT178500275.1.2.3.0],Conns=[delta wye],kvs=[13.80 0.22],kvas=[45.000000000 45.000000000],Taps=[1,1.000000000],XHL=3.640000000,%loadloss=1.670000000,%noloadloss=0.433000000
new transformer.1530183 Phases=3,Windings=2,Buses=[BMT178500288.1.2.3 BBT178500289.1.2.3.0],Conns=[delta wye],kvs=[13.80 0.22],kvas=[45.000000000 45.000000000],Taps=[1,1.000000000],XHL=3.640000000,%loadloss=1.670000000,%noloadloss=0.433000000
new transformer.399885 Phases=3,Windings=2,Buses=[BMT98740056.1.2.3 BBT1739321.1.2.3.0],Conns=[delta wye],kvs=[13.80 0.22],kvas=[30.000000000 30.000000000],Taps=[1,1.000000000],XHL=3.560000000,%loadloss=1.820000000,%noloadloss=0.500000000
new transformer.399906 Phases=3,Windings=2,Buses=[BMT171487963.1.2.3 BBT1739482.1.2.3.0],Conns=[delta wye],kvs=[13.80 0.22],kvas=[45.000000000 45.000000000],Taps=[1,1.000000000],XHL=3.640000000,%loadloss=1.670000000,%noloadloss=0.433000000
new transformer.422733 Phases=3,Windings=2,Buses=[BMT152808444.1.2.3 BBT1800382.1.2.3.0],Conns=[delta wye],kvs=[13.80 0.22],kvas=[150.000000000 150.000000000],Taps=[1,1.000000000],XHL=3.810000000,%loadloss=1.230000000,%noloadloss=0.323000000
new transformer.1238295 Phases=1,Windings=3,Buses=[BMT98742590.3 BBT55912971.1.0 BBT55912971.0.2],Conns=[wye wye wye],kvs=[7.967 0.12 0.12],kvas=[5.000000000 5.000000000 5.000000000],Taps=[1,1.000000000,1.000000000],XHL=1.360000000,XHT=,XLT=,%loadloss=2.100000000,%noloadloss=0.700000000
new transformer.1421489 Phases=3,Windings=2,Buses=[BMT175690466.1.2.3 BBT155377521.1.2.3.0],Conns=[delta wye],kvs=[13.80 0.22],kvas=[45.000000000 45.000000000],Taps=[1,1.000000000],XHL=3.640000000,%loadloss=1.670000000,%noloadloss=0.433000000
new transformer.1424586 Phases=3,Windings=2,Buses=[BMT156025281.1.2.3 BBT156015015.1.2.3.0],Conns=[delta wye],kvs=[13.80 0.22],kvas=[45.000000000 45.000000000],Taps=[1,1.000000000],XHL=3.640000000,%loadloss=1.670000000,%noloadloss=0.433000000
new transformer.1424624 Phases=3,Windings=2,Buses=[BMT156025282.1.2.3 BBT156023424.1.2.3.0],Conns=[delta wye],kvs=[13.80 0.22],kvas=[45.000000000 45.000000000],Taps=[1,1.000000000],XHL=3.640000000,%loadloss=1.670000000,%noloadloss=0.433000000
new transformer.1424627 Phases=3,Windings=2,Buses=[BMT156025280.1.2.3 BBT156023675.1.2.3.0],Conns=[delta wye],kvs=[13.80 0.22],kvas=[45.000000000 45.000000000],Taps=[1,1.000000000],XHL=3.640000000,%loadloss=1.670000000,%noloadloss=0.433000000
new transformer.1424630 Phases=3,Windings=2,Buses=[BMT156025278.1.2.3 BBT156024164.1.2.3.0],Conns=[delta wye],kvs=[13.80 0.22],kvas=[45.000000000 45.000000000],Taps=[1,1.000000000],XHL=3.640000000,%loadloss=1.670000000,%noloadloss=0.433000000
new transformer.1424632 Phases=3,Windings=2,Buses=[BMT156025276.1.2.3 BBT156024317.1.2.3.0],Conns=[delta wye],kvs=[13.80 0.22],kvas=[45.000000000 45.000000000],Taps=[1,1.000000000],XHL=3.640000000,%loadloss=1.670000000,%noloadloss=0.433000000
new transformer.1424636 Phases=3,Windings=2,Buses=[BMT156024548.1.2.3 BBT156024549.1.2.3.0],Conns=[delta wye],kvs=[13.80 0.22],kvas=[45.000000000 45.000000000],Taps=[1,1.000000000],XHL=3.640000000,%loadloss=1.670000000,%noloadloss=0.433000000
new transformer.1424637 Phases=3,Windings=2,Buses=[BMT156025272.1.2.3 BBT156024632.1.2.3.0],Conns=[delta wye],kvs=[13.80 0.22],kvas=[45.000000000 45.000000000],Taps=[1,1.000000000],XHL=3.640000000,%loadloss=1.670000000,%noloadloss=0.433000000
new transformer.1424639 Phases=3,Windings=2,Buses=[BMT156025271.1.2.3 BBT156025283.1.2.3.0],Conns=[delta wye],kvs=[13.80 0.22],kvas=[45.000000000 45.000000000],Taps=[1,1.000000000],XHL=3.640000000,%loadloss=1.670000000,%noloadloss=0.433000000
new transformer.1440260 Phases=3,Windings=2,Buses=[BMT159232062.1.2.3 BBT159232063.1.2.3.0],Conns=[delta wye],kvs=[13.80 0.22],kvas=[45.000000000 45.000000000],Taps=[1,1.000000000],XHL=3.640000000,%loadloss=1.670000000,%noloadloss=0.433000000
new transformer.1509556 Phases=1,Windings=3,Buses=[BMT174075326.2 BBT174075327.1.0 BBT174075327.0.2],Conns=[wye wye wye],kvs=[7.967 0.12 0.12],kvas=[10.000000000 10.000000000 10.000000000],Taps=[1,1.000000000,1.000000000],XHL=1.560000000,XHT=,XLT=,%loadloss=1.950000000,%noloadloss=0.500000000
new transformer.1524440 Phases=3,Windings=2,Buses=[BMT177427777.1.2.3 BBT177427188.1.2.3.0],Conns=[delta wye],kvs=[13.80 0.22],kvas=[45.000000000 45.000000000],Taps=[1,1.000000000],XHL=3.640000000,%loadloss=1.670000000,%noloadloss=0.433000000
new transformer.418680 Phases=1,Windings=3,Buses=[BMT98741127.2 BBT1789413.1.0 BBT1789413.0.2],Conns=[wye wye wye],kvs=[7.967 0.12 0.12],kvas=[15.000000000 15.000000000 15.000000000],Taps=[1,1.000000000,1.000000000],XHL=1.770000000,XHT=,XLT=,%loadloss=1.770000000,%noloadloss=0.433000000
new transformer.418834 Phases=1,Windings=3,Buses=[BMT170161958.2 BBT1789721.1.0 BBT1789721.0.2],Conns=[wye wye wye],kvs=[7.967 0.12 0.12],kvas=[15.000000000 15.000000000 15.000000000],Taps=[1,1.000000000,1.000000000],XHL=1.770000000,XHT=,XLT=,%loadloss=1.770000000,%noloadloss=0.433000000
new transformer.418960 Phases=1,Windings=3,Buses=[BMT175329326.3 BBT1789973.1.0 BBT1789973.0.2],Conns=[wye wye wye],kvs=[7.967 0.12 0.12],kvas=[15.000000000 15.000000000 15.000000000],Taps=[1,1.000000000,1.000000000],XHL=1.770000000,XHT=,XLT=,%loadloss=1.770000000,%noloadloss=0.433000000
new transformer.419037 Phases=1,Windings=3,Buses=[BMT167320793.2 BBT1790127.1.0 BBT1790127.0.2],Conns=[wye wye wye],kvs=[7.967 0.12 0.12],kvas=[10.000000000 10.000000000 10.000000000],Taps=[1,1.000000000,1.000000000],XHL=1.560000000,XHT=,XLT=,%loadloss=1.950000000,%noloadloss=0.500000000
new transformer.419065 Phases=1,Windings=3,Buses=[BMT175329322.3 BBT1790183.1.0 BBT1790183.0.2],Conns=[wye wye wye],kvs=[7.967 0.12 0.12],kvas=[15.000000000 15.000000000 15.000000000],Taps=[1,1.000000000,1.000000000],XHL=1.770000000,XHT=,XLT=,%loadloss=1.770000000,%noloadloss=0.433000000
new transformer.419107 Phases=1,Windings=3,Buses=[BMT98741330.2 BBT1790267.1.0 BBT1790267.0.2],Conns=[wye wye wye],kvs=[7.967 0.12 0.12],kvas=[10.000000000 10.000000000 10.000000000],Taps=[1,1.000000000,1.000000000],XHL=1.560000000,XHT=,XLT=,%loadloss=1.950000000,%noloadloss=0.500000000
new transformer.421382 Phases=1,Windings=3,Buses=[BMT176369353.2 BBT1795398.1.0 BBT1795398.0.2],Conns=[wye wye wye],kvs=[7.967 0.12 0.12],kvas=[10.000000000 10.000000000 10.000000000],Taps=[1,1.000000000,1.000000000],XHL=1.560000000,XHT=,XLT=,%loadloss=1.950000000,%noloadloss=0.500000000
new transformer.421452 Phases=1,Windings=3,Buses=[BMT98742226.1 BBT1795538.1.0 BBT1795538.0.2],Conns=[wye wye wye],kvs=[7.967 0.12 0.12],kvas=[15.000000000 15.000000000 15.000000000],Taps=[1,1.000000000,1.000000000],XHL=1.770000000,XHT=,XLT=,%loadloss=1.770000000,%noloadloss=0.433000000
new transformer.421529 Phases=1,Windings=3,Buses=[BMT98742247.1 BBT1795699.1.0 BBT1795699.0.2],Conns=[wye wye wye],kvs=[7.967 0.12 0.12],kvas=[15.000000000 15.000000000 15.000000000],Taps=[1,1.000000000,1.000000000],XHL=1.770000000,XHT=,XLT=,%loadloss=1.770000000,%noloadloss=0.433000000
new transformer.421613 Phases=1,Windings=3,Buses=[BMT174780213.1 BBT1795944.1.0 BBT1795944.0.2],Conns=[wye wye wye],kvs=[7.967 0.12 0.12],kvas=[25.000000000 25.000000000 25.000000000],Taps=[1,1.000000000,1.000000000],XHL=1.950000000,XHT=,XLT=,%loadloss=1.560000000,%noloadloss=0.360000000
new transformer.421683 Phases=1,Windings=3,Buses=[BMT174780216.1 BBT1796084.1.0 BBT1796084.0.2],Conns=[wye wye wye],kvs=[7.967 0.12 0.12],kvas=[10.000000000 10.000000000 10.000000000],Taps=[1,1.000000000,1.000000000],XHL=1.560000000,XHT=,XLT=,%loadloss=1.950000000,%noloadloss=0.500000000
new transformer.1244742 Phases=1,Windings=3,Buses=[BMT98741771.3 BBT58373289.1.0 BBT58373289.0.2],Conns=[wye wye wye],kvs=[7.967 0.12 0.12],kvas=[10.000000000 10.000000000 10.000000000],Taps=[1,1.000000000,1.000000000],XHL=1.560000000,XHT=,XLT=,%loadloss=1.950000000,%noloadloss=0.500000000
new transformer.1414074 Phases=1,Windings=3,Buses=[BMT170518614.2 BBT153662806.1.0 BBT153662806.0.2],Conns=[wye wye wye],kvs=[7.967 0.12 0.12],kvas=[35.000000000 35.000000000 35.000000000],Taps=[1,1.000000000,1.000000000],XHL=2.060000000,XHT=,XLT=,%loadloss=1.410000000,%noloadloss=0.385000000
new transformer.1425079 Phases=1,Windings=3,Buses=[BMT171840575.3 BBT156123571.1.0 BBT156123571.0.2],Conns=[wye wye wye],kvs=[7.967 0.12 0.12],kvas=[10.000000000 10.000000000 10.000000000],Taps=[1,1.000000000,1.000000000],XHL=1.560000000,XHT=,XLT=,%loadloss=1.950000000,%noloadloss=0.500000000
new transformer.1469848 Phases=1,Windings=3,Buses=[BMT167320803.2 BBT166384407.1.0 BBT166384407.0.2],Conns=[wye wye wye],kvs=[7.967 0.12 0.12],kvas=[10.000000000 10.000000000 10.000000000],Taps=[1,1.000000000,1.000000000],XHL=1.560000000,XHT=,XLT=,%loadloss=1.950000000,%noloadloss=0.500000000
new transformer.1478149 Phases=1,Windings=3,Buses=[BMT174780222.1 BBT167802026.1.0 BBT167802026.0.2],Conns=[wye wye wye],kvs=[7.967 0.12 0.12],kvas=[10.000000000 10.000000000 10.000000000],Taps=[1,1.000000000,1.000000000],XHL=1.560000000,XHT=,XLT=,%loadloss=1.950000000,%noloadloss=0.500000000
new transformer.1486363 Phases=3,Windings=2,Buses=[BMT175690462.1.2.3 BBT169258794.1.2.3.0],Conns=[delta wye],kvs=[13.80 0.22],kvas=[45.000000000 45.000000000],Taps=[1,1.000000000],XHL=3.640000000,%loadloss=1.670000000,%noloadloss=0.433000000
new transformer.1497885 Phases=1,Windings=3,Buses=[BMT171669364.2 BBT171566816.1.0 BBT171566816.0.2],Conns=[wye wye wye],kvs=[7.967 0.12 0.12],kvas=[10.000000000 10.000000000 10.000000000],Taps=[1,1.000000000,1.000000000],XHL=1.560000000,XHT=,XLT=,%loadloss=1.950000000,%noloadloss=0.500000000
new transformer.1508439 Phases=3,Windings=2,Buses=[BMT175690463.1.2.3 BBT173874561.1.2.3.0],Conns=[delta wye],kvs=[13.80 0.22],kvas=[75.000000000 75.000000000],Taps=[1,1.000000000],XHL=3.720000000,%loadloss=1.470000000,%noloadloss=0.393000000
new transformer.1522136 Phases=3,Windings=2,Buses=[BMT177013875.1.2.3 BBT177013751.1.2.3.0],Conns=[delta wye],kvs=[13.80 0.22],kvas=[75.000000000 75.000000000],Taps=[1,1.000000000],XHL=3.720000000,%loadloss=1.470000000,%noloadloss=0.393000000
new transformer.404771 Phases=1,Windings=3,Buses=[BMT98739118.2 BBT1753265.1.0 BBT1753265.0.2],Conns=[wye wye wye],kvs=[7.967 0.12 0.12],kvas=[35.000000000 35.000000000 35.000000000],Taps=[1,1.000000000,1.000000000],XHL=2.060000000,XHT=,XLT=,%loadloss=1.410000000,%noloadloss=0.385000000
new transformer.418008 Phases=1,Windings=3,Buses=[BMT170161960.2 BBT1788041.1.0 BBT1788041.0.2],Conns=[wye wye wye],kvs=[7.967 0.12 0.12],kvas=[15.000000000 15.000000000 15.000000000],Taps=[1,1.000000000,1.000000000],XHL=1.770000000,XHT=,XLT=,%loadloss=1.770000000,%noloadloss=0.433000000
new transformer.418071 Phases=1,Windings=3,Buses=[BMT98741064.2 BBT1788167.1.0 BBT1788167.0.2],Conns=[wye wye wye],kvs=[7.967 0.12 0.12],kvas=[15.000000000 15.000000000 15.000000000],Taps=[1,1.000000000,1.000000000],XHL=1.770000000,XHT=,XLT=,%loadloss=1.770000000,%noloadloss=0.433000000
new transformer.418281 Phases=1,Windings=3,Buses=[BMT171840576.3 BBT1788587.1.0 BBT1788587.0.2],Conns=[wye wye wye],kvs=[7.967 0.12 0.12],kvas=[15.000000000 15.000000000 15.000000000],Taps=[1,1.000000000,1.000000000],XHL=1.770000000,XHT=,XLT=,%loadloss=1.770000000,%noloadloss=0.433000000
new transformer.418330 Phases=1,Windings=3,Buses=[BMT98741680.3 BBT1788685.1.0 BBT1788685.0.2],Conns=[wye wye wye],kvs=[7.967 0.12 0.12],kvas=[15.000000000 15.000000000 15.000000000],Taps=[1,1.000000000,1.000000000],XHL=1.770000000,XHT=,XLT=,%loadloss=1.770000000,%noloadloss=0.433000000
new transformer.418540 Phases=1,Windings=3,Buses=[BMT98741113.2 BBT1789126.1.0 BBT1789126.0.2],Conns=[wye wye wye],kvs=[7.967 0.12 0.12],kvas=[15.000000000 15.000000000 15.000000000],Taps=[1,1.000000000,1.000000000],XHL=1.770000000,XHT=,XLT=,%loadloss=1.770000000,%noloadloss=0.433000000
new transformer.418568 Phases=1,Windings=3,Buses=[BMT167320798.2 BBT1789189.1.0 BBT1789189.0.2],Conns=[wye wye wye],kvs=[7.967 0.12 0.12],kvas=[15.000000000 15.000000000 15.000000000],Taps=[1,1.000000000,1.000000000],XHL=1.770000000,XHT=,XLT=,%loadloss=1.770000000,%noloadloss=0.433000000
new transformer.422054 Phases=1,Windings=3,Buses=[BMT160892011.1 BBT1796847.1.0 BBT1796847.0.2],Conns=[wye wye wye],kvs=[7.967 0.12 0.12],kvas=[10.000000000 10.000000000 10.000000000],Taps=[1,1.000000000,1.000000000],XHL=1.560000000,XHT=,XLT=,%loadloss=1.950000000,%noloadloss=0.500000000
new transformer.422110 Phases=1,Windings=3,Buses=[BMT98741946.2 BBT1796959.1.0 BBT1796959.0.2],Conns=[wye wye wye],kvs=[7.967 0.12 0.12],kvas=[15.000000000 15.000000000 15.000000000],Taps=[1,1.000000000,1.000000000],XHL=1.770000000,XHT=,XLT=,%loadloss=1.770000000,%noloadloss=0.433000000
new transformer.422131 Phases=1,Windings=3,Buses=[BMT98742275.1 BBT1797001.1.0 BBT1797001.0.2],Conns=[wye wye wye],kvs=[7.967 0.12 0.12],kvas=[10.000000000 10.000000000 10.000000000],Taps=[1,1.000000000,1.000000000],XHL=1.560000000,XHT=,XLT=,%loadloss=1.950000000,%noloadloss=0.500000000
new transformer.422159 Phases=1,Windings=3,Buses=[BMT176369346.2 BBT1797057.1.0 BBT1797057.0.2],Conns=[wye wye wye],kvs=[7.967 0.12 0.12],kvas=[15.000000000 15.000000000 15.000000000],Taps=[1,1.000000000,1.000000000],XHL=1.770000000,XHT=,XLT=,%loadloss=1.770000000,%noloadloss=0.433000000
new transformer.422180 Phases=1,Windings=3,Buses=[BMT160892008.1 BBT1797099.1.0 BBT1797099.0.2],Conns=[wye wye wye],kvs=[7.967 0.12 0.12],kvas=[35.000000000 35.000000000 35.000000000],Taps=[1,1.000000000,1.000000000],XHL=2.060000000,XHT=,XLT=,%loadloss=1.410000000,%noloadloss=0.385000000
new transformer.422187 Phases=1,Windings=3,Buses=[BMT98742261.1 BBT1797113.1.0 BBT1797113.0.2],Conns=[wye wye wye],kvs=[7.967 0.12 0.12],kvas=[10.000000000 10.000000000 10.000000000],Taps=[1,1.000000000,1.000000000],XHL=1.560000000,XHT=,XLT=,%loadloss=1.950000000,%noloadloss=0.500000000
new transformer.422271 Phases=1,Windings=3,Buses=[BMT175971105.3 BBT1797281.1.0 BBT1797281.0.2],Conns=[wye wye wye],kvs=[7.967 0.12 0.12],kvas=[25.000000000 25.000000000 25.000000000],Taps=[1,1.000000000,1.000000000],XHL=1.950000000,XHT=,XLT=,%loadloss=1.560000000,%noloadloss=0.360000000
new transformer.422285 Phases=1,Windings=3,Buses=[BMT175971109.3 BBT1797365.1.0 BBT1797365.0.2],Conns=[wye wye wye],kvs=[7.967 0.12 0.12],kvas=[35.000000000 35.000000000 35.000000000],Taps=[1,1.000000000,1.000000000],XHL=2.060000000,XHT=,XLT=,%loadloss=1.410000000,%noloadloss=0.385000000
new transformer.422299 Phases=3,Windings=2,Buses=[BMT172486888.1.2.3 BBT1797484.1.2.3.0],Conns=[delta wye],kvs=[13.80 0.22],kvas=[75.000000000 75.000000000],Taps=[1,1.000000000],XHL=3.720000000,%loadloss=1.470000000,%noloadloss=0.393000000
new transformer.420073 Phases=3,Windings=2,Buses=[BMT171830892.1.2.3 BBT1792640.1.2.3.0],Conns=[delta wye],kvs=[13.80 0.22],kvas=[45.000000000 45.000000000],Taps=[1,1.000000000],XHL=3.640000000,%loadloss=1.670000000,%noloadloss=0.433000000
new transformer.420094 Phases=1,Windings=3,Buses=[BMT159186153.3 BBT1792682.1.0 BBT1792682.0.2],Conns=[wye wye wye],kvs=[7.967 0.12 0.12],kvas=[15.000000000 15.000000000 15.000000000],Taps=[1,1.000000000,1.000000000],XHL=1.770000000,XHT=,XLT=,%loadloss=1.770000000,%noloadloss=0.433000000
new transformer.420122 Phases=1,Windings=3,Buses=[BMT163197247.2 BBT1792738.1.0 BBT1792738.0.2],Conns=[wye wye wye],kvs=[7.967 0.12 0.12],kvas=[25.000000000 25.000000000 25.000000000],Taps=[1,1.000000000,1.000000000],XHL=1.950000000,XHT=,XLT=,%loadloss=1.560000000,%noloadloss=0.360000000
new transformer.420164 Phases=1,Windings=3,Buses=[BMT159186155.3 BBT1792822.1.0 BBT1792822.0.2],Conns=[wye wye wye],kvs=[7.967 0.12 0.12],kvas=[15.000000000 15.000000000 15.000000000],Taps=[1,1.000000000,1.000000000],XHL=1.770000000,XHT=,XLT=,%loadloss=1.770000000,%noloadloss=0.433000000
new transformer.420234 Phases=3,Windings=2,Buses=[BMT98741806.1.2.3 BBT1792990.1.2.3.0],Conns=[delta wye],kvs=[13.80 0.22],kvas=[15.000000000 15.000000000],Taps=[1,1.000000000],XHL=3.360000000,%loadloss=2.170000000,%noloadloss=0.566000000
new transformer.420353 Phases=1,Windings=3,Buses=[BMT171830864.2 BBT1793228.1.0 BBT1793228.0.2],Conns=[wye wye wye],kvs=[7.967 0.12 0.12],kvas=[15.000000000 15.000000000 15.000000000],Taps=[1,1.000000000,1.000000000],XHL=1.770000000,XHT=,XLT=,%loadloss=1.770000000,%noloadloss=0.433000000
new transformer.420360 Phases=1,Windings=3,Buses=[BMT175329330.3 BBT1793242.1.0 BBT1793242.0.2],Conns=[wye wye wye],kvs=[7.967 0.12 0.12],kvas=[35.000000000 35.000000000 35.000000000],Taps=[1,1.000000000,1.000000000],XHL=2.060000000,XHT=,XLT=,%loadloss=1.410000000,%noloadloss=0.385000000
new transformer.420367 Phases=1,Windings=3,Buses=[BMT98742597.1 BBT1793256.1.0 BBT1793256.0.2],Conns=[wye wye wye],kvs=[7.967 0.12 0.12],kvas=[10.000000000 10.000000000 10.000000000],Taps=[1,1.000000000,1.000000000],XHL=1.560000000,XHT=,XLT=,%loadloss=1.950000000,%noloadloss=0.500000000
new transformer.420388 Phases=1,Windings=3,Buses=[BMT98741757.3 BBT1793298.1.0 BBT1793298.0.2],Conns=[wye wye wye],kvs=[7.967 0.12 0.12],kvas=[15.000000000 15.000000000 15.000000000],Taps=[1,1.000000000,1.000000000],XHL=1.770000000,XHT=,XLT=,%loadloss=1.770000000,%noloadloss=0.433000000
new transformer.420500 Phases=3,Windings=2,Buses=[BMT98741813.1.2.3 BBT1793522.1.2.3.0],Conns=[delta wye],kvs=[13.80 0.22],kvas=[15.000000000 15.000000000],Taps=[1,1.000000000],XHL=3.360000000,%loadloss=2.170000000,%noloadloss=0.566000000
new transformer.420521 Phases=1,Windings=3,Buses=[BMT170295133.2 BBT1793564.1.0 BBT1793564.0.2],Conns=[wye wye wye],kvs=[7.967 0.12 0.12],kvas=[10.000000000 10.000000000 10.000000000],Taps=[1,1.000000000,1.000000000],XHL=1.560000000,XHT=,XLT=,%loadloss=1.950000000,%noloadloss=0.500000000
new transformer.420598 Phases=3,Windings=2,Buses=[BMT98741799.1.2.3 BBT1793718.1.2.3.0],Conns=[delta wye],kvs=[13.80 0.22],kvas=[15.000000000 15.000000000],Taps=[1,1.000000000],XHL=3.360000000,%loadloss=2.170000000,%noloadloss=0.566000000
new transformer.423356 Phases=3,Windings=2,Buses=[BMT174994103.1.2.3 BBT1803756.1.2.3.0],Conns=[delta wye],kvs=[13.80 0.22],kvas=[75.000000000 75.000000000],Taps=[1,1.000000000],XHL=3.720000000,%loadloss=1.470000000,%noloadloss=0.393000000
new transformer.423370 Phases=3,Windings=2,Buses=[BMT172170245.1.2.3 BBT1803924.1.2.3.0],Conns=[delta wye],kvs=[13.80 0.22],kvas=[45.000000000 45.000000000],Taps=[1,1.000000000],XHL=3.640000000,%loadloss=1.670000000,%noloadloss=0.433000000
new transformer.423384 Phases=3,Windings=2,Buses=[BMT154860193.1.2.3 BBT1804120.1.2.3.0],Conns=[delta wye],kvs=[13.80 0.22],kvas=[30.000000000 30.000000000],Taps=[1,1.000000000],XHL=3.560000000,%loadloss=1.820000000,%noloadloss=0.500000000
new transformer.423405 Phases=3,Windings=2,Buses=[BMT177264830.1.2.3 BBT1804246.1.2.3.0],Conns=[delta wye],kvs=[13.80 0.22],kvas=[45.000000000 45.000000000],Taps=[1,1.000000000],XHL=3.640000000,%loadloss=1.670000000,%noloadloss=0.433000000
new transformer.423419 Phases=3,Windings=2,Buses=[BMT170318176.1.2.3 BBT1804435.1.2.3.0],Conns=[delta wye],kvs=[13.80 0.22],kvas=[75.000000000 75.000000000],Taps=[1,1.000000000],XHL=3.720000000,%loadloss=1.470000000,%noloadloss=0.393000000
new transformer.423447 Phases=1,Windings=3,Buses=[BMT177264711.3 BBT1804491.1.0 BBT1804491.0.2],Conns=[wye wye wye],kvs=[7.967 0.12 0.12],kvas=[35.000000000 35.000000000 35.000000000],Taps=[1,1.000000000,1.000000000],XHL=2.060000000,XHT=,XLT=,%loadloss=1.410000000,%noloadloss=0.385000000
new transformer.423461 Phases=3,Windings=2,Buses=[BMT174994096.1.2.3 BBT1804652.1.2.3.0],Conns=[delta wye],kvs=[13.80 0.22],kvas=[75.000000000 75.000000000],Taps=[1,1.000000000],XHL=3.720000000,%loadloss=1.470000000,%noloadloss=0.393000000
...