2024_89_CemigReconfigurationCases/1_AlimsCemig/BDPD04/BDPD04SegmentosBT.dss
new line.10038386 bus1=BBT2559056.1.2.3.0,bus2=BBT2559063.1.2.3.0,Phases=3,Linecode=BT803_BT803_4_3_4,Length=0.042207000,Units=km
new line.10038414 bus1=BBT2559063.1.2.3.0,bus2=BBT2559070.1.2.3.0,Phases=3,Linecode=BT803_BT803_4_3_4,Length=0.044199000,Units=km
new line.10038519 bus1=BBT2559098.1.2.3.0,bus2=BBT2559105.1.2.3.0,Phases=3,Linecode=BT810_BT810_4_3_4,Length=0.030012000,Units=km
new line.10038792 bus1=BBT2559168.1.2.3.0,bus2=BBT2559175.1.2.3.0,Phases=3,Linecode=BT803_BT803_4_3_4,Length=0.037592000,Units=km
new line.10038820 bus1=BBT2559175.1.2.3.0,bus2=BBT2559182.1.2.3.0,Phases=3,Linecode=BT803_BT803_4_3_4,Length=0.037458000,Units=km
new line.10038855 bus1=BBT2559182.1.2.3.0,bus2=BBT2559189.1.2.3.0,Phases=3,Linecode=BT810_BT810_4_3_4,Length=0.040029000,Units=km
new line.10038883 bus1=BBT2559189.1.2.3.0,bus2=BBT2559196.1.2.3.0,Phases=3,Linecode=BT810_BT810_4_3_4,Length=0.040029000,Units=km
new line.10039065 bus1=BBT2559259.1.2.3.0,bus2=BBT1800396.1.2.3.0,Phases=3,Linecode=BT107_BT107_7_3_1,Length=0.040377000,Units=km
new line.10039072 bus1=BBT2559259.1.2.3.0,bus2=BBT2559266.1.2.3.0,Phases=3,Linecode=BT108_BT108_7_3_1,Length=0.024850000,Units=km
new line.11171259 bus1=BBT2718558.1.2.0,bus2=BBT2718565.1.2.0,Phases=2,Linecode=BT316_BT316_7_2_1,Length=0.000501000,Units=km
new line.11171294 bus1=BBT2718544.1.2.0,bus2=BBT2718551.1.2.0,Phases=2,Linecode=BT316_BT316_7_2_1,Length=0.000501000,Units=km
new line.11777067 bus1=BBT3468587.1.2.0,bus2=BBT4021769.1.2.0,Phases=2,Linecode=BT808_BT808_4_2_3,Length=0.024217000,Units=km
new line.11777116 bus1=BBT3728378.1.2.0,bus2=BBT3728385.1.2.0,Phases=2,Linecode=BT808_BT808_4_2_3,Length=0.044222000,Units=km
new line.11777144 bus1=BBT2816474.1.2.0,bus2=BBT3728378.1.2.0,Phases=2,Linecode=BT808_BT808_4_2_3,Length=0.041248000,Units=km
new line.11777151 bus1=BBT2816474.1.2.0,bus2=BBT3227178.1.2.0,Phases=2,Linecode=BT808_BT808_4_2_3,Length=0.045018000,Units=km
new line.11777158 bus1=BBT2816474.1.2.0,bus2=BBT4242360.1.2.0,Phases=2,Linecode=BT808_BT808_4_2_3,Length=0.046880000,Units=km
new line.11777193 bus1=BBT2816460.1.2.0,bus2=BBT2816474.1.2.0,Phases=2,Linecode=BT810_BT810_4_2_4,Length=0.025623000,Units=km
new line.11777200 bus1=BBT2816460.1.2.0,bus2=BBT2816467.1.2.0,Phases=2,Linecode=BT808_BT808_4_2_3,Length=0.025623000,Units=km
new line.11777207 bus1=BBT2816453.1.2.0,bus2=BBT2816460.1.2.0,Phases=2,Linecode=BT518_BT518_7_2_1,Length=0.000501000,Units=km
new line.11777235 bus1=BBT3468580.1.2.0,bus2=BBT3468587.1.2.0,Phases=2,Linecode=BT808_BT808_4_2_3,Length=0.037658000,Units=km
new line.11777256 bus1=BBT2816495.1.2.0,bus2=BBT3468580.1.2.0,Phases=2,Linecode=BT808_BT808_4_2_3,Length=0.040624000,Units=km
new line.11777277 bus1=BBT2816488.1.2.0,bus2=BBT2816495.1.2.0,Phases=2,Linecode=BT807_BT807_4_2_3,Length=0.039220000,Units=km
new line.11777284 bus1=BBT2816481.1.2.0,bus2=BBT2816488.1.2.0,Phases=2,Linecode=BT518_BT518_7_2_1,Length=0.000501000,Units=km
new line.11777291 bus1=BBT2816488.1.2.0,bus2=BBT2816502.1.2.0,Phases=2,Linecode=BT807_BT807_4_2_3,Length=0.040624000,Units=km
new line.11777319 bus1=BBT2816502.1.2.0,bus2=BBT2816509.1.2.0,Phases=2,Linecode=BT807_BT807_4_2_3,Length=0.043618000,Units=km
new line.11777347 bus1=BBT2816509.1.2.0,bus2=BBT2816516.1.2.0,Phases=2,Linecode=BT808_BT808_4_2_3,Length=0.024850000,Units=km
new line.11777354 bus1=BBT2816509.1.2.0,bus2=BBT2816523.1.2.0,Phases=2,Linecode=BT808_BT808_4_2_3,Length=0.026412000,Units=km
new line.11777382 bus1=BBT2816530.1.2.0,bus2=BBT2816537.1.2.0,Phases=2,Linecode=BT808_BT808_4_2_3,Length=0.040241000,Units=km
new line.11777403 bus1=BBT2816523.1.2.0,bus2=BBT2816530.1.2.0,Phases=2,Linecode=BT808_BT808_4_2_3,Length=0.026412000,Units=km
new line.11777417 bus1=BBT2816537.1.2.0,bus2=BBT2816544.1.2.0,Phases=2,Linecode=BT808_BT808_4_2_3,Length=0.040624000,Units=km
new line.11777438 bus1=BBT2816544.1.2.0,bus2=BBT4523431.1.2.0,Phases=2,Linecode=BT808_BT808_4_2_3,Length=0.040016000,Units=km
new line.11777480 bus1=BBT2816425.1.2.0,bus2=BBT3430885.1.2.0,Phases=2,Linecode=BT808_BT808_4_2_3,Length=0.039220000,Units=km
new line.11777501 bus1=BBT2816404.1.2.0,bus2=BBT2816425.1.2.0,Phases=2,Linecode=BT807_BT807_4_2_3,Length=0.040624000,Units=km
new line.11777508 bus1=BBT2816397.1.2.0,bus2=BBT2816404.1.2.0,Phases=2,Linecode=BT518_BT518_7_2_1,Length=0.000501000,Units=km
new line.11777515 bus1=BBT2816404.1.2.0,bus2=BBT2816411.1.2.0,Phases=2,Linecode=BT807_BT807_4_2_3,Length=0.038616000,Units=km
new line.11777529 bus1=BBT2816411.1.2.0,bus2=BBT2816418.1.2.0,Phases=2,Linecode=BT807_BT807_4_2_3,Length=0.039841000,Units=km
new line.11777564 bus1=BBT2816418.1.2.0,bus2=BBT2816432.1.2.0,Phases=2,Linecode=BT808_BT808_4_2_3,Length=0.040821000,Units=km
new line.11777599 bus1=BBT2816432.1.2.0,bus2=BBT2816439.1.2.0,Phases=2,Linecode=BT808_BT808_4_2_3,Length=0.040821000,Units=km
new line.11777613 bus1=BBT2816439.1.2.0,bus2=BBT2816446.1.2.0,Phases=2,Linecode=BT808_BT808_4_2_3,Length=0.040624000,Units=km
...